* NGSPICE file created from spm.ext - technology: sky130A

* Black-box entry subcircuit for sky130_fd_sc_hd__decap_6 abstract view
.subckt sky130_fd_sc_hd__decap_6 VGND VNB VPB VPWR
.ends

* Black-box entry subcircuit for sky130_ef_sc_hd__decap_12 abstract view
.subckt sky130_ef_sc_hd__decap_12 VGND VNB VPB VPWR
.ends

* Black-box entry subcircuit for sky130_fd_sc_hd__inv_2 abstract view
.subckt sky130_fd_sc_hd__inv_2 A VGND VNB VPB VPWR Y
.ends

* Black-box entry subcircuit for sky130_fd_sc_hd__and2_1 abstract view
.subckt sky130_fd_sc_hd__and2_1 A B VGND VNB VPB VPWR X
.ends

* Black-box entry subcircuit for sky130_fd_sc_hd__fill_1 abstract view
.subckt sky130_fd_sc_hd__fill_1 VGND VNB VPB VPWR
.ends

* Black-box entry subcircuit for sky130_fd_sc_hd__fill_2 abstract view
.subckt sky130_fd_sc_hd__fill_2 VGND VNB VPB VPWR
.ends

* Black-box entry subcircuit for sky130_fd_sc_hd__xnor2_1 abstract view
.subckt sky130_fd_sc_hd__xnor2_1 A B VGND VNB VPB VPWR Y
.ends

* Black-box entry subcircuit for sky130_fd_sc_hd__dfrtp_1 abstract view
.subckt sky130_fd_sc_hd__dfrtp_1 CLK D RESET_B VGND VNB VPB VPWR Q
.ends

* Black-box entry subcircuit for sky130_fd_sc_hd__decap_4 abstract view
.subckt sky130_fd_sc_hd__decap_4 VGND VNB VPB VPWR
.ends

* Black-box entry subcircuit for sky130_fd_sc_hd__a31o_1 abstract view
.subckt sky130_fd_sc_hd__a31o_1 A1 A2 A3 B1 VGND VNB VPB VPWR X
.ends

* Black-box entry subcircuit for sky130_fd_sc_hd__tapvpwrvgnd_1 abstract view
.subckt sky130_fd_sc_hd__tapvpwrvgnd_1 VGND VPWR
.ends

* Black-box entry subcircuit for sky130_fd_sc_hd__xor2_1 abstract view
.subckt sky130_fd_sc_hd__xor2_1 A B VGND VNB VPB VPWR X
.ends

* Black-box entry subcircuit for sky130_fd_sc_hd__clkbuf_16 abstract view
.subckt sky130_fd_sc_hd__clkbuf_16 A VGND VNB VPB VPWR X
.ends

* Black-box entry subcircuit for sky130_fd_sc_hd__nand2_1 abstract view
.subckt sky130_fd_sc_hd__nand2_1 A B VGND VNB VPB VPWR Y
.ends

* Black-box entry subcircuit for sky130_fd_sc_hd__decap_8 abstract view
.subckt sky130_fd_sc_hd__decap_8 VGND VNB VPB VPWR
.ends

* Black-box entry subcircuit for sky130_fd_sc_hd__decap_3 abstract view
.subckt sky130_fd_sc_hd__decap_3 VGND VNB VPB VPWR
.ends

* Black-box entry subcircuit for sky130_fd_sc_hd__buf_2 abstract view
.subckt sky130_fd_sc_hd__buf_2 A VGND VNB VPB VPWR X
.ends

* Black-box entry subcircuit for sky130_fd_sc_hd__xor2_2 abstract view
.subckt sky130_fd_sc_hd__xor2_2 A B VGND VNB VPB VPWR X
.ends

* Black-box entry subcircuit for sky130_fd_sc_hd__clkbuf_1 abstract view
.subckt sky130_fd_sc_hd__clkbuf_1 A VGND VNB VPB VPWR X
.ends

* Black-box entry subcircuit for sky130_fd_sc_hd__buf_6 abstract view
.subckt sky130_fd_sc_hd__buf_6 A VGND VNB VPB VPWR X
.ends

* Black-box entry subcircuit for sky130_fd_sc_hd__nand3_1 abstract view
.subckt sky130_fd_sc_hd__nand3_1 A B C VGND VNB VPB VPWR Y
.ends

* Black-box entry subcircuit for sky130_fd_sc_hd__a21o_1 abstract view
.subckt sky130_fd_sc_hd__a21o_1 A1 A2 B1 VGND VNB VPB VPWR X
.ends

* Black-box entry subcircuit for sky130_fd_sc_hd__buf_4 abstract view
.subckt sky130_fd_sc_hd__buf_4 A VGND VNB VPB VPWR X
.ends

* Black-box entry subcircuit for sky130_fd_sc_hd__dlymetal6s2s_1 abstract view
.subckt sky130_fd_sc_hd__dlymetal6s2s_1 A VGND VNB VPB VPWR X
.ends

* Black-box entry subcircuit for sky130_fd_sc_hd__clkbuf_8 abstract view
.subckt sky130_fd_sc_hd__clkbuf_8 A VGND VNB VPB VPWR X
.ends

* Black-box entry subcircuit for sky130_fd_sc_hd__clkbuf_4 abstract view
.subckt sky130_fd_sc_hd__clkbuf_4 A VGND VNB VPB VPWR X
.ends

* Black-box entry subcircuit for sky130_fd_sc_hd__diode_2 abstract view
.subckt sky130_fd_sc_hd__diode_2 DIODE VGND VNB VPB VPWR
.ends

.subckt spm VGND VPWR clk p rst x[0] x[10] x[11] x[12] x[13] x[14] x[15] x[16] x[17]
+ x[18] x[19] x[1] x[20] x[21] x[22] x[23] x[24] x[25] x[26] x[27] x[28] x[29] x[2]
+ x[30] x[31] x[3] x[4] x[5] x[6] x[7] x[8] x[9] y
XFILLER_22_166 VGND VGND VPWR VPWR sky130_fd_sc_hd__decap_6
XFILLER_22_122 VGND VGND VPWR VPWR sky130_ef_sc_hd__decap_12
X_432_ _438_/A VGND VGND VPWR VPWR _432_/Y sky130_fd_sc_hd__inv_2
X_363_ _503_/Q _506_/Q VGND VGND VPWR VPWR _363_/X sky130_fd_sc_hd__and2_1
XFILLER_26_96 VGND VGND VPWR VPWR sky130_fd_sc_hd__fill_1
XFILLER_26_85 VGND VGND VPWR VPWR sky130_fd_sc_hd__fill_2
XFILLER_26_52 VGND VGND VPWR VPWR sky130_ef_sc_hd__decap_12
XFILLER_13_166 VGND VGND VPWR VPWR sky130_fd_sc_hd__fill_2
X_294_ _294_/A _294_/B VGND VGND VPWR VPWR _476_/D sky130_fd_sc_hd__xnor2_1
XFILLER_3_23 VGND VGND VPWR VPWR sky130_ef_sc_hd__decap_12
X_501_ _504_/CLK _501_/D _437_/Y VGND VGND VPWR VPWR _501_/Q sky130_fd_sc_hd__dfrtp_1
XFILLER_9_137 VGND VGND VPWR VPWR sky130_ef_sc_hd__decap_12
X_346_ _346_/A _346_/B VGND VGND VPWR VPWR _496_/D sky130_fd_sc_hd__xnor2_1
X_415_ _416_/A VGND VGND VPWR VPWR _415_/Y sky130_fd_sc_hd__inv_2
XFILLER_6_107 VGND VGND VPWR VPWR sky130_fd_sc_hd__decap_4
X_277_ _264_/X _278_/B _279_/B _276_/X VGND VGND VPWR VPWR _469_/D sky130_fd_sc_hd__a31o_1
X_329_ _316_/X _330_/B _331_/B _328_/X VGND VGND VPWR VPWR _489_/D sky130_fd_sc_hd__a31o_1
XFILLER_0_57 VGND VGND VPWR VPWR sky130_ef_sc_hd__decap_12
XFILLER_2_165 VGND VGND VPWR VPWR sky130_fd_sc_hd__decap_4
XFILLER_2_176 VGND VGND VPWR VPWR sky130_fd_sc_hd__decap_4
XFILLER_29_128 VGND VGND VPWR VPWR sky130_fd_sc_hd__decap_4
XFILLER_29_52 VGND VGND VPWR VPWR sky130_fd_sc_hd__decap_4
XFILLER_29_41 VGND VGND VPWR VPWR sky130_fd_sc_hd__decap_4
XFILLER_28_183 VGND VGND VPWR VPWR sky130_fd_sc_hd__decap_4
XFILLER_13_3 VGND VGND VPWR VPWR sky130_fd_sc_hd__decap_4
XFILLER_15_54 VGND VGND VPWR VPWR sky130_fd_sc_hd__fill_2
XFILLER_31_178 VGND VGND VPWR VPWR sky130_fd_sc_hd__decap_4
XFILLER_31_156 VGND VGND VPWR VPWR sky130_fd_sc_hd__fill_1
XTAP_167 VGND VPWR sky130_fd_sc_hd__tapvpwrvgnd_1
XTAP_156 VGND VPWR sky130_fd_sc_hd__tapvpwrvgnd_1
XTAP_145 VGND VPWR sky130_fd_sc_hd__tapvpwrvgnd_1
XFILLER_22_145 VGND VGND VPWR VPWR sky130_fd_sc_hd__fill_1
XFILLER_22_134 VGND VGND VPWR VPWR sky130_fd_sc_hd__decap_6
XFILLER_22_101 VGND VGND VPWR VPWR sky130_fd_sc_hd__fill_1
XTAP_134 VGND VPWR sky130_fd_sc_hd__tapvpwrvgnd_1
XTAP_123 VGND VPWR sky130_fd_sc_hd__tapvpwrvgnd_1
XTAP_112 VGND VPWR sky130_fd_sc_hd__tapvpwrvgnd_1
XTAP_101 VGND VPWR sky130_fd_sc_hd__tapvpwrvgnd_1
X_431_ _438_/A VGND VGND VPWR VPWR _431_/Y sky130_fd_sc_hd__inv_2
X_362_ _503_/Q _506_/Q VGND VGND VPWR VPWR _366_/B sky130_fd_sc_hd__xor2_1
Xclkbuf_3_6__f_clk clkbuf_0_clk/X VGND VGND VPWR VPWR _497_/CLK sky130_fd_sc_hd__clkbuf_16
X_293_ _293_/A _293_/B VGND VGND VPWR VPWR _294_/A sky130_fd_sc_hd__nand2_1
XFILLER_3_35 VGND VGND VPWR VPWR sky130_fd_sc_hd__fill_1
XFILLER_3_46 VGND VGND VPWR VPWR sky130_fd_sc_hd__decap_4
XFILLER_3_57 VGND VGND VPWR VPWR sky130_fd_sc_hd__fill_2
XFILLER_3_79 VGND VGND VPWR VPWR sky130_fd_sc_hd__decap_6
XFILLER_9_149 VGND VGND VPWR VPWR sky130_fd_sc_hd__decap_4
X_500_ _504_/CLK _500_/D _436_/Y VGND VGND VPWR VPWR _500_/Q sky130_fd_sc_hd__dfrtp_1
XFILLER_12_44 VGND VGND VPWR VPWR sky130_ef_sc_hd__decap_12
X_345_ _345_/A _345_/B VGND VGND VPWR VPWR _346_/A sky130_fd_sc_hd__nand2_1
X_276_ _469_/Q _472_/Q VGND VGND VPWR VPWR _276_/X sky130_fd_sc_hd__and2_1
X_414_ _416_/A VGND VGND VPWR VPWR _414_/Y sky130_fd_sc_hd__inv_2
XFILLER_23_32 VGND VGND VPWR VPWR sky130_ef_sc_hd__decap_12
X_328_ _489_/Q _492_/Q VGND VGND VPWR VPWR _328_/X sky130_fd_sc_hd__and2_1
X_259_ _463_/Q _466_/Q VGND VGND VPWR VPWR _263_/B sky130_fd_sc_hd__xor2_1
XFILLER_0_69 VGND VGND VPWR VPWR sky130_ef_sc_hd__decap_12
XFILLER_9_12 VGND VGND VPWR VPWR sky130_fd_sc_hd__decap_8
XFILLER_9_45 VGND VGND VPWR VPWR sky130_fd_sc_hd__decap_8
XFILLER_22_8 VGND VGND VPWR VPWR sky130_fd_sc_hd__decap_4
XFILLER_29_75 VGND VGND VPWR VPWR sky130_fd_sc_hd__decap_8
XFILLER_29_64 VGND VGND VPWR VPWR sky130_fd_sc_hd__decap_8
XFILLER_29_20 VGND VGND VPWR VPWR sky130_fd_sc_hd__decap_4
XFILLER_20_99 VGND VGND VPWR VPWR sky130_fd_sc_hd__decap_8
XFILLER_1_90 VGND VGND VPWR VPWR sky130_fd_sc_hd__decap_6
XFILLER_6_13 VGND VGND VPWR VPWR sky130_fd_sc_hd__fill_1
XFILLER_25_176 VGND VGND VPWR VPWR sky130_fd_sc_hd__decap_4
XFILLER_31_113 VGND VGND VPWR VPWR sky130_fd_sc_hd__fill_2
XFILLER_31_98 VGND VGND VPWR VPWR sky130_fd_sc_hd__decap_4
XFILLER_31_87 VGND VGND VPWR VPWR sky130_fd_sc_hd__decap_4
XFILLER_31_76 VGND VGND VPWR VPWR sky130_fd_sc_hd__decap_4
XFILLER_31_65 VGND VGND VPWR VPWR sky130_fd_sc_hd__decap_4
XFILLER_31_54 VGND VGND VPWR VPWR sky130_fd_sc_hd__fill_2
XTAP_168 VGND VPWR sky130_fd_sc_hd__tapvpwrvgnd_1
XFILLER_30_190 VGND VGND VPWR VPWR sky130_fd_sc_hd__decap_4
XTAP_157 VGND VPWR sky130_fd_sc_hd__tapvpwrvgnd_1
XTAP_146 VGND VPWR sky130_fd_sc_hd__tapvpwrvgnd_1
XTAP_135 VGND VPWR sky130_fd_sc_hd__tapvpwrvgnd_1
XTAP_124 VGND VPWR sky130_fd_sc_hd__tapvpwrvgnd_1
XTAP_113 VGND VPWR sky130_fd_sc_hd__tapvpwrvgnd_1
XTAP_102 VGND VPWR sky130_fd_sc_hd__tapvpwrvgnd_1
X_361_ _361_/A _361_/B VGND VGND VPWR VPWR _502_/D sky130_fd_sc_hd__xnor2_1
X_430_ _438_/A VGND VGND VPWR VPWR _430_/Y sky130_fd_sc_hd__inv_2
X_292_ _264_/X _293_/B _294_/B _291_/X VGND VGND VPWR VPWR _475_/D sky130_fd_sc_hd__a31o_1
XFILLER_13_113 VGND VGND VPWR VPWR sky130_fd_sc_hd__decap_8
XFILLER_13_102 VGND VGND VPWR VPWR sky130_fd_sc_hd__fill_1
XFILLER_7_9 VGND VGND VPWR VPWR sky130_fd_sc_hd__fill_1
XFILLER_12_56 VGND VGND VPWR VPWR sky130_fd_sc_hd__decap_3
XFILLER_12_12 VGND VGND VPWR VPWR sky130_fd_sc_hd__decap_4
XFILLER_10_105 VGND VGND VPWR VPWR sky130_ef_sc_hd__decap_12
XFILLER_10_138 VGND VGND VPWR VPWR sky130_fd_sc_hd__fill_2
X_344_ _316_/X _345_/B _346_/B _343_/X VGND VGND VPWR VPWR _495_/D sky130_fd_sc_hd__a31o_1
X_275_ _469_/Q _472_/Q VGND VGND VPWR VPWR _279_/B sky130_fd_sc_hd__xor2_1
X_413_ _416_/A VGND VGND VPWR VPWR _413_/Y sky130_fd_sc_hd__inv_2
XFILLER_23_44 VGND VGND VPWR VPWR sky130_ef_sc_hd__decap_12
XFILLER_0_15 VGND VGND VPWR VPWR sky130_ef_sc_hd__decap_12
XFILLER_2_134 VGND VGND VPWR VPWR sky130_fd_sc_hd__fill_1
XFILLER_2_145 VGND VGND VPWR VPWR sky130_fd_sc_hd__fill_1
XFILLER_3_3 VGND VGND VPWR VPWR sky130_ef_sc_hd__decap_12
X_327_ _489_/Q _492_/Q VGND VGND VPWR VPWR _331_/B sky130_fd_sc_hd__xor2_1
X_258_ _258_/A _258_/B VGND VGND VPWR VPWR _462_/D sky130_fd_sc_hd__xnor2_1
XFILLER_9_57 VGND VGND VPWR VPWR sky130_fd_sc_hd__fill_2
XFILLER_9_79 VGND VGND VPWR VPWR sky130_ef_sc_hd__decap_12
XFILLER_29_98 VGND VGND VPWR VPWR sky130_fd_sc_hd__fill_2
XFILLER_28_141 VGND VGND VPWR VPWR sky130_fd_sc_hd__decap_3
XFILLER_25_166 VGND VGND VPWR VPWR sky130_fd_sc_hd__fill_2
XFILLER_25_111 VGND VGND VPWR VPWR sky130_fd_sc_hd__fill_1
XTAP_169 VGND VPWR sky130_fd_sc_hd__tapvpwrvgnd_1
XFILLER_31_169 VGND VGND VPWR VPWR sky130_fd_sc_hd__fill_2
XTAP_158 VGND VPWR sky130_fd_sc_hd__tapvpwrvgnd_1
XTAP_147 VGND VPWR sky130_fd_sc_hd__tapvpwrvgnd_1
XTAP_136 VGND VPWR sky130_fd_sc_hd__tapvpwrvgnd_1
XTAP_125 VGND VPWR sky130_fd_sc_hd__tapvpwrvgnd_1
XTAP_114 VGND VPWR sky130_fd_sc_hd__tapvpwrvgnd_1
XTAP_103 VGND VPWR sky130_fd_sc_hd__tapvpwrvgnd_1
X_360_ _370_/A _360_/B VGND VGND VPWR VPWR _361_/A sky130_fd_sc_hd__nand2_1
X_291_ _475_/Q _478_/Q VGND VGND VPWR VPWR _291_/X sky130_fd_sc_hd__and2_1
XFILLER_13_169 VGND VGND VPWR VPWR sky130_fd_sc_hd__decap_3
XFILLER_21_191 VGND VGND VPWR VPWR sky130_fd_sc_hd__decap_3
X_489_ _491_/CLK _489_/D _424_/Y VGND VGND VPWR VPWR _489_/Q sky130_fd_sc_hd__dfrtp_1
XFILLER_3_15 VGND VGND VPWR VPWR sky130_fd_sc_hd__decap_4
XFILLER_12_79 VGND VGND VPWR VPWR sky130_fd_sc_hd__decap_4
XFILLER_5_7 VGND VGND VPWR VPWR sky130_fd_sc_hd__fill_1
XFILLER_10_117 VGND VGND VPWR VPWR sky130_fd_sc_hd__fill_1
X_274_ _274_/A _274_/B VGND VGND VPWR VPWR _468_/D sky130_fd_sc_hd__xnor2_1
X_343_ _495_/Q _498_/Q VGND VGND VPWR VPWR _343_/X sky130_fd_sc_hd__and2_1
X_412_ _416_/A VGND VGND VPWR VPWR _412_/Y sky130_fd_sc_hd__inv_2
XFILLER_23_23 VGND VGND VPWR VPWR sky130_fd_sc_hd__decap_4
XFILLER_23_12 VGND VGND VPWR VPWR sky130_fd_sc_hd__decap_4
XFILLER_2_102 VGND VGND VPWR VPWR sky130_ef_sc_hd__decap_12
XFILLER_0_27 VGND VGND VPWR VPWR sky130_fd_sc_hd__fill_1
XFILLER_2_157 VGND VGND VPWR VPWR sky130_fd_sc_hd__fill_1
X_326_ _326_/A _326_/B VGND VGND VPWR VPWR _488_/D sky130_fd_sc_hd__xnor2_1
XFILLER_29_3 VGND VGND VPWR VPWR sky130_fd_sc_hd__fill_2
X_257_ _293_/A _257_/B VGND VGND VPWR VPWR _258_/A sky130_fd_sc_hd__nand2_1
XFILLER_18_12 VGND VGND VPWR VPWR sky130_ef_sc_hd__decap_12
X_309_ _345_/A _309_/B VGND VGND VPWR VPWR _310_/A sky130_fd_sc_hd__nand2_1
XFILLER_20_24 VGND VGND VPWR VPWR sky130_fd_sc_hd__decap_4
XFILLER_6_48 VGND VGND VPWR VPWR sky130_ef_sc_hd__decap_12
XFILLER_19_142 VGND VGND VPWR VPWR sky130_fd_sc_hd__decap_4
XFILLER_31_12 VGND VGND VPWR VPWR sky130_fd_sc_hd__decap_6
XFILLER_15_57 VGND VGND VPWR VPWR sky130_fd_sc_hd__decap_4
XFILLER_15_46 VGND VGND VPWR VPWR sky130_fd_sc_hd__decap_4
XTAP_159 VGND VPWR sky130_fd_sc_hd__tapvpwrvgnd_1
XTAP_148 VGND VPWR sky130_fd_sc_hd__tapvpwrvgnd_1
XTAP_137 VGND VPWR sky130_fd_sc_hd__tapvpwrvgnd_1
XTAP_126 VGND VPWR sky130_fd_sc_hd__tapvpwrvgnd_1
XTAP_115 VGND VPWR sky130_fd_sc_hd__tapvpwrvgnd_1
XTAP_104 VGND VPWR sky130_fd_sc_hd__tapvpwrvgnd_1
XFILLER_11_3 VGND VGND VPWR VPWR sky130_fd_sc_hd__decap_4
X_488_ _497_/CLK _488_/D _423_/Y VGND VGND VPWR VPWR _488_/Q sky130_fd_sc_hd__dfrtp_1
X_290_ _475_/Q _478_/Q VGND VGND VPWR VPWR _294_/B sky130_fd_sc_hd__xor2_1
XFILLER_12_181 VGND VGND VPWR VPWR sky130_fd_sc_hd__decap_4
XFILLER_8_141 VGND VGND VPWR VPWR sky130_fd_sc_hd__fill_2
X_342_ _495_/Q _498_/Q VGND VGND VPWR VPWR _346_/B sky130_fd_sc_hd__xor2_1
X_273_ _293_/A _273_/B VGND VGND VPWR VPWR _274_/A sky130_fd_sc_hd__nand2_1
X_411_ _416_/A VGND VGND VPWR VPWR _411_/Y sky130_fd_sc_hd__inv_2
XFILLER_23_79 VGND VGND VPWR VPWR sky130_fd_sc_hd__decap_4
XFILLER_23_57 VGND VGND VPWR VPWR sky130_fd_sc_hd__fill_2
XFILLER_2_114 VGND VGND VPWR VPWR sky130_ef_sc_hd__decap_12
X_325_ _345_/A _325_/B VGND VGND VPWR VPWR _326_/A sky130_fd_sc_hd__nand2_1
X_256_ _208_/X _257_/B _258_/B _255_/X VGND VGND VPWR VPWR _461_/D sky130_fd_sc_hd__a31o_1
XFILLER_18_79 VGND VGND VPWR VPWR sky130_fd_sc_hd__decap_4
XFILLER_18_68 VGND VGND VPWR VPWR sky130_fd_sc_hd__decap_4
XFILLER_18_46 VGND VGND VPWR VPWR sky130_fd_sc_hd__fill_2
XFILLER_18_24 VGND VGND VPWR VPWR sky130_fd_sc_hd__decap_4
X_308_ _264_/X _309_/B _310_/B _307_/X VGND VGND VPWR VPWR _481_/D sky130_fd_sc_hd__a31o_1
X_239_ _455_/Q _458_/Q VGND VGND VPWR VPWR _239_/X sky130_fd_sc_hd__and2_1
XFILLER_29_34 VGND VGND VPWR VPWR sky130_fd_sc_hd__decap_4
XFILLER_29_12 VGND VGND VPWR VPWR sky130_fd_sc_hd__decap_4
XFILLER_28_176 VGND VGND VPWR VPWR sky130_fd_sc_hd__decap_4
XFILLER_28_165 VGND VGND VPWR VPWR sky130_fd_sc_hd__decap_4
XFILLER_28_154 VGND VGND VPWR VPWR sky130_fd_sc_hd__decap_4
XFILLER_28_132 VGND VGND VPWR VPWR sky130_fd_sc_hd__decap_8
XFILLER_20_58 VGND VGND VPWR VPWR sky130_fd_sc_hd__decap_4
XFILLER_19_121 VGND VGND VPWR VPWR sky130_fd_sc_hd__fill_1
XFILLER_19_110 VGND VGND VPWR VPWR sky130_fd_sc_hd__fill_2
XFILLER_13_7 VGND VGND VPWR VPWR sky130_fd_sc_hd__fill_1
XFILLER_6_27 VGND VGND VPWR VPWR sky130_fd_sc_hd__fill_1
XFILLER_10_80 VGND VGND VPWR VPWR sky130_fd_sc_hd__decap_4
XFILLER_31_57 VGND VGND VPWR VPWR sky130_fd_sc_hd__decap_4
XFILLER_25_146 VGND VGND VPWR VPWR sky130_ef_sc_hd__decap_12
XFILLER_25_113 VGND VGND VPWR VPWR sky130_ef_sc_hd__decap_12
XFILLER_15_69 VGND VGND VPWR VPWR sky130_fd_sc_hd__decap_6
Xoutput35 _444_/Q VGND VGND VPWR VPWR p sky130_fd_sc_hd__buf_2
XTAP_149 VGND VPWR sky130_fd_sc_hd__tapvpwrvgnd_1
XFILLER_24_190 VGND VGND VPWR VPWR sky130_fd_sc_hd__decap_4
XTAP_138 VGND VPWR sky130_fd_sc_hd__tapvpwrvgnd_1
XTAP_127 VGND VPWR sky130_fd_sc_hd__tapvpwrvgnd_1
XTAP_116 VGND VPWR sky130_fd_sc_hd__tapvpwrvgnd_1
XTAP_105 VGND VPWR sky130_fd_sc_hd__tapvpwrvgnd_1
Xclkbuf_3_1__f_clk clkbuf_0_clk/X VGND VGND VPWR VPWR _476_/CLK sky130_fd_sc_hd__clkbuf_16
XFILLER_30_171 VGND VGND VPWR VPWR sky130_fd_sc_hd__fill_1
XFILLER_7_81 VGND VGND VPWR VPWR sky130_fd_sc_hd__decap_8
XFILLER_26_35 VGND VGND VPWR VPWR sky130_fd_sc_hd__fill_1
XFILLER_3_39 VGND VGND VPWR VPWR sky130_fd_sc_hd__decap_4
X_487_ _505_/CLK _487_/D _422_/Y VGND VGND VPWR VPWR _487_/Q sky130_fd_sc_hd__dfrtp_1
XFILLER_12_193 VGND VGND VPWR VPWR sky130_fd_sc_hd__fill_1
XFILLER_8_186 VGND VGND VPWR VPWR sky130_fd_sc_hd__fill_1
X_272_ _264_/X _273_/B _274_/B _271_/X VGND VGND VPWR VPWR _467_/D sky130_fd_sc_hd__a31o_1
X_341_ _341_/A _341_/B VGND VGND VPWR VPWR _494_/D sky130_fd_sc_hd__xnor2_1
X_410_ _416_/A VGND VGND VPWR VPWR _410_/Y sky130_fd_sc_hd__inv_2
XFILLER_5_167 VGND VGND VPWR VPWR sky130_fd_sc_hd__fill_1
XFILLER_4_82 VGND VGND VPWR VPWR sky130_fd_sc_hd__fill_2
X_324_ _316_/X _325_/B _326_/B _323_/X VGND VGND VPWR VPWR _487_/D sky130_fd_sc_hd__a31o_1
XFILLER_13_91 VGND VGND VPWR VPWR sky130_fd_sc_hd__fill_2
XFILLER_0_29 VGND VGND VPWR VPWR sky130_ef_sc_hd__decap_12
XFILLER_2_126 VGND VGND VPWR VPWR sky130_fd_sc_hd__decap_8
X_255_ _461_/Q _464_/Q VGND VGND VPWR VPWR _255_/X sky130_fd_sc_hd__and2_1
XFILLER_1_3 VGND VGND VPWR VPWR sky130_ef_sc_hd__decap_12
X_307_ _481_/Q _484_/Q VGND VGND VPWR VPWR _307_/X sky130_fd_sc_hd__and2_1
X_238_ _455_/Q _458_/Q VGND VGND VPWR VPWR _242_/B sky130_fd_sc_hd__xor2_2
XFILLER_1_50 VGND VGND VPWR VPWR sky130_fd_sc_hd__decap_6
XFILLER_29_57 VGND VGND VPWR VPWR sky130_fd_sc_hd__fill_2
XFILLER_28_100 VGND VGND VPWR VPWR sky130_ef_sc_hd__decap_12
XFILLER_20_37 VGND VGND VPWR VPWR sky130_fd_sc_hd__fill_1
XFILLER_20_15 VGND VGND VPWR VPWR sky130_fd_sc_hd__fill_2
XFILLER_19_166 VGND VGND VPWR VPWR sky130_fd_sc_hd__fill_2
XFILLER_6_39 VGND VGND VPWR VPWR sky130_fd_sc_hd__decap_4
XFILLER_25_169 VGND VGND VPWR VPWR sky130_fd_sc_hd__fill_2
XFILLER_25_158 VGND VGND VPWR VPWR sky130_fd_sc_hd__decap_4
XFILLER_25_125 VGND VGND VPWR VPWR sky130_fd_sc_hd__fill_1
XFILLER_25_103 VGND VGND VPWR VPWR sky130_fd_sc_hd__decap_8
XFILLER_15_37 VGND VGND VPWR VPWR sky130_fd_sc_hd__decap_4
XFILLER_15_15 VGND VGND VPWR VPWR sky130_fd_sc_hd__decap_4
XTAP_139 VGND VPWR sky130_fd_sc_hd__tapvpwrvgnd_1
XTAP_128 VGND VPWR sky130_fd_sc_hd__tapvpwrvgnd_1
XTAP_117 VGND VPWR sky130_fd_sc_hd__tapvpwrvgnd_1
XTAP_106 VGND VPWR sky130_fd_sc_hd__tapvpwrvgnd_1
XPHY_0 VGND VGND VPWR VPWR sky130_fd_sc_hd__decap_3
XFILLER_13_106 VGND VGND VPWR VPWR sky130_fd_sc_hd__decap_6
X_486_ _506_/CLK _486_/D _421_/Y VGND VGND VPWR VPWR _486_/Q sky130_fd_sc_hd__dfrtp_1
XFILLER_12_27 VGND VGND VPWR VPWR sky130_fd_sc_hd__fill_1
X_271_ _467_/Q _470_/Q VGND VGND VPWR VPWR _271_/X sky130_fd_sc_hd__and2_1
X_340_ _345_/A _340_/B VGND VGND VPWR VPWR _341_/A sky130_fd_sc_hd__nand2_1
XFILLER_5_113 VGND VGND VPWR VPWR sky130_fd_sc_hd__fill_2
XFILLER_5_135 VGND VGND VPWR VPWR sky130_fd_sc_hd__decap_4
X_469_ _505_/CLK _469_/D _402_/Y VGND VGND VPWR VPWR _469_/Q sky130_fd_sc_hd__dfrtp_1
XFILLER_4_61 VGND VGND VPWR VPWR sky130_fd_sc_hd__fill_1
X_323_ _487_/Q _490_/Q VGND VGND VPWR VPWR _323_/X sky130_fd_sc_hd__and2_1
XFILLER_2_138 VGND VGND VPWR VPWR sky130_fd_sc_hd__fill_2
X_254_ _461_/Q _464_/Q VGND VGND VPWR VPWR _258_/B sky130_fd_sc_hd__xor2_1
X_306_ _481_/Q _484_/Q VGND VGND VPWR VPWR _310_/B sky130_fd_sc_hd__xor2_1
XFILLER_27_3 VGND VGND VPWR VPWR sky130_fd_sc_hd__decap_8
X_237_ _237_/A _237_/B VGND VGND VPWR VPWR _454_/D sky130_fd_sc_hd__xnor2_1
XFILLER_28_112 VGND VGND VPWR VPWR sky130_fd_sc_hd__decap_3
XFILLER_6_29 VGND VGND VPWR VPWR sky130_fd_sc_hd__decap_3
XFILLER_10_93 VGND VGND VPWR VPWR sky130_ef_sc_hd__decap_12
XFILLER_15_27 VGND VGND VPWR VPWR sky130_fd_sc_hd__decap_4
XFILLER_31_26 VGND VGND VPWR VPWR sky130_fd_sc_hd__decap_4
XFILLER_24_170 VGND VGND VPWR VPWR sky130_fd_sc_hd__decap_8
XTAP_129 VGND VPWR sky130_fd_sc_hd__tapvpwrvgnd_1
XTAP_118 VGND VPWR sky130_fd_sc_hd__tapvpwrvgnd_1
XFILLER_15_192 VGND VGND VPWR VPWR sky130_fd_sc_hd__fill_2
XTAP_107 VGND VPWR sky130_fd_sc_hd__tapvpwrvgnd_1
XPHY_1 VGND VGND VPWR VPWR sky130_fd_sc_hd__decap_3
XFILLER_26_26 VGND VGND VPWR VPWR sky130_fd_sc_hd__fill_2
XFILLER_26_15 VGND VGND VPWR VPWR sky130_fd_sc_hd__decap_4
XFILLER_16_81 VGND VGND VPWR VPWR sky130_fd_sc_hd__decap_3
XFILLER_3_19 VGND VGND VPWR VPWR sky130_fd_sc_hd__fill_1
X_485_ _496_/CLK _485_/D _420_/Y VGND VGND VPWR VPWR _485_/Q sky130_fd_sc_hd__dfrtp_1
X_270_ _467_/Q _470_/Q VGND VGND VPWR VPWR _274_/B sky130_fd_sc_hd__xor2_1
XFILLER_5_169 VGND VGND VPWR VPWR sky130_fd_sc_hd__fill_2
X_399_ _405_/A VGND VGND VPWR VPWR _399_/Y sky130_fd_sc_hd__inv_2
X_468_ _496_/CLK _468_/D _401_/Y VGND VGND VPWR VPWR _468_/Q sky130_fd_sc_hd__dfrtp_1
XFILLER_4_180 VGND VGND VPWR VPWR sky130_fd_sc_hd__fill_1
XFILLER_4_191 VGND VGND VPWR VPWR sky130_fd_sc_hd__decap_3
X_322_ _487_/Q _490_/Q VGND VGND VPWR VPWR _326_/B sky130_fd_sc_hd__xor2_2
X_253_ _253_/A _253_/B VGND VGND VPWR VPWR _460_/D sky130_fd_sc_hd__xnor2_1
Xclkbuf_3_7__f_clk clkbuf_0_clk/X VGND VGND VPWR VPWR _506_/CLK sky130_fd_sc_hd__clkbuf_16
XFILLER_13_71 VGND VGND VPWR VPWR sky130_ef_sc_hd__decap_12
XFILLER_18_38 VGND VGND VPWR VPWR sky130_fd_sc_hd__decap_8
X_305_ _305_/A _305_/B VGND VGND VPWR VPWR _480_/D sky130_fd_sc_hd__xnor2_1
X_236_ _316_/A _236_/B VGND VGND VPWR VPWR _237_/A sky130_fd_sc_hd__nand2_1
XFILLER_19_113 VGND VGND VPWR VPWR sky130_fd_sc_hd__decap_8
X_219_ _447_/Q _450_/Q VGND VGND VPWR VPWR _219_/X sky130_fd_sc_hd__and2_1
XFILLER_16_138 VGND VGND VPWR VPWR sky130_fd_sc_hd__fill_2
XFILLER_30_130 VGND VGND VPWR VPWR sky130_fd_sc_hd__fill_2
XTAP_119 VGND VPWR sky130_fd_sc_hd__tapvpwrvgnd_1
Xclkbuf_0_clk clk VGND VGND VPWR VPWR clkbuf_0_clk/X sky130_fd_sc_hd__clkbuf_16
XTAP_108 VGND VPWR sky130_fd_sc_hd__tapvpwrvgnd_1
XPHY_2 VGND VGND VPWR VPWR sky130_fd_sc_hd__decap_3
XFILLER_30_163 VGND VGND VPWR VPWR sky130_fd_sc_hd__decap_8
XFILLER_30_141 VGND VGND VPWR VPWR sky130_fd_sc_hd__decap_4
XFILLER_32_70 VGND VGND VPWR VPWR sky130_fd_sc_hd__decap_8
X_484_ _505_/CLK _484_/D _419_/Y VGND VGND VPWR VPWR _484_/Q sky130_fd_sc_hd__dfrtp_1
XFILLER_12_185 VGND VGND VPWR VPWR sky130_fd_sc_hd__fill_1
XFILLER_12_141 VGND VGND VPWR VPWR sky130_fd_sc_hd__fill_2
XFILLER_12_29 VGND VGND VPWR VPWR sky130_fd_sc_hd__decap_8
XFILLER_5_159 VGND VGND VPWR VPWR sky130_fd_sc_hd__decap_8
XFILLER_27_92 VGND VGND VPWR VPWR sky130_fd_sc_hd__decap_4
XFILLER_27_81 VGND VGND VPWR VPWR sky130_fd_sc_hd__decap_4
XFILLER_4_85 VGND VGND VPWR VPWR sky130_ef_sc_hd__decap_12
X_398_ _405_/A VGND VGND VPWR VPWR _398_/Y sky130_fd_sc_hd__inv_2
X_467_ _478_/CLK _467_/D _400_/Y VGND VGND VPWR VPWR _467_/Q sky130_fd_sc_hd__dfrtp_1
X_321_ _321_/A _321_/B VGND VGND VPWR VPWR _486_/D sky130_fd_sc_hd__xnor2_1
X_252_ _293_/A _252_/B VGND VGND VPWR VPWR _253_/A sky130_fd_sc_hd__nand2_1
XFILLER_13_83 VGND VGND VPWR VPWR sky130_fd_sc_hd__decap_8
X_304_ _345_/A _304_/B VGND VGND VPWR VPWR _305_/A sky130_fd_sc_hd__nand2_1
XFILLER_24_93 VGND VGND VPWR VPWR sky130_fd_sc_hd__fill_2
X_235_ _208_/X _236_/B _237_/B _234_/X VGND VGND VPWR VPWR _453_/D sky130_fd_sc_hd__a31o_1
XFILLER_20_29 VGND VGND VPWR VPWR sky130_fd_sc_hd__decap_8
XFILLER_29_27 VGND VGND VPWR VPWR sky130_fd_sc_hd__decap_4
XFILLER_29_16 VGND VGND VPWR VPWR sky130_fd_sc_hd__fill_1
XFILLER_28_147 VGND VGND VPWR VPWR sky130_fd_sc_hd__decap_4
XFILLER_28_125 VGND VGND VPWR VPWR sky130_fd_sc_hd__decap_4
XFILLER_32_3 VGND VGND VPWR VPWR sky130_fd_sc_hd__decap_6
XFILLER_19_169 VGND VGND VPWR VPWR sky130_fd_sc_hd__decap_3
X_218_ _447_/Q _450_/Q VGND VGND VPWR VPWR _222_/B sky130_fd_sc_hd__xor2_1
XFILLER_31_109 VGND VGND VPWR VPWR sky130_fd_sc_hd__decap_3
XFILLER_24_183 VGND VGND VPWR VPWR sky130_fd_sc_hd__decap_4
XFILLER_21_72 VGND VGND VPWR VPWR sky130_fd_sc_hd__decap_4
XFILLER_21_61 VGND VGND VPWR VPWR sky130_fd_sc_hd__fill_1
XFILLER_16_117 VGND VGND VPWR VPWR sky130_fd_sc_hd__fill_1
XTAP_109 VGND VPWR sky130_fd_sc_hd__tapvpwrvgnd_1
XFILLER_26_39 VGND VGND VPWR VPWR sky130_fd_sc_hd__decap_6
XPHY_3 VGND VGND VPWR VPWR sky130_fd_sc_hd__decap_3
X_483_ _497_/CLK _483_/D _418_/Y VGND VGND VPWR VPWR _483_/Q sky130_fd_sc_hd__dfrtp_1
XFILLER_12_153 VGND VGND VPWR VPWR sky130_fd_sc_hd__decap_8
XFILLER_32_82 VGND VGND VPWR VPWR sky130_fd_sc_hd__fill_2
XFILLER_12_19 VGND VGND VPWR VPWR sky130_fd_sc_hd__decap_8
XFILLER_8_146 VGND VGND VPWR VPWR sky130_ef_sc_hd__decap_12
X_466_ _478_/CLK _466_/D _399_/Y VGND VGND VPWR VPWR _466_/Q sky130_fd_sc_hd__dfrtp_1
X_397_ _405_/A VGND VGND VPWR VPWR _397_/Y sky130_fd_sc_hd__inv_2
XFILLER_4_97 VGND VGND VPWR VPWR sky130_fd_sc_hd__decap_4
X_320_ _345_/A _320_/B VGND VGND VPWR VPWR _321_/A sky130_fd_sc_hd__nand2_1
X_251_ _208_/X _252_/B _253_/B _250_/X VGND VGND VPWR VPWR _459_/D sky130_fd_sc_hd__a31o_1
XFILLER_18_29 VGND VGND VPWR VPWR sky130_fd_sc_hd__fill_2
X_449_ _476_/CLK _449_/D _380_/Y VGND VGND VPWR VPWR _449_/Q sky130_fd_sc_hd__dfrtp_1
X_303_ _264_/X _304_/B _305_/B _302_/X VGND VGND VPWR VPWR _479_/D sky130_fd_sc_hd__a31o_1
X_234_ _453_/Q _456_/Q VGND VGND VPWR VPWR _234_/X sky130_fd_sc_hd__and2_1
X_217_ _217_/A VGND VGND VPWR VPWR _446_/D sky130_fd_sc_hd__clkbuf_1
XFILLER_10_85 VGND VGND VPWR VPWR sky130_fd_sc_hd__decap_4
XFILLER_31_18 VGND VGND VPWR VPWR sky130_fd_sc_hd__fill_1
XFILLER_25_3 VGND VGND VPWR VPWR sky130_fd_sc_hd__decap_4
XFILLER_18_181 VGND VGND VPWR VPWR sky130_ef_sc_hd__decap_12
XFILLER_15_19 VGND VGND VPWR VPWR sky130_fd_sc_hd__fill_1
XPHY_4 VGND VGND VPWR VPWR sky130_fd_sc_hd__decap_3
XFILLER_26_29 VGND VGND VPWR VPWR sky130_fd_sc_hd__decap_6
XFILLER_21_121 VGND VGND VPWR VPWR sky130_fd_sc_hd__fill_1
X_482_ _505_/CLK _482_/D _416_/Y VGND VGND VPWR VPWR _482_/Q sky130_fd_sc_hd__dfrtp_1
XFILLER_16_73 VGND VGND VPWR VPWR sky130_fd_sc_hd__decap_8
XFILLER_8_125 VGND VGND VPWR VPWR sky130_ef_sc_hd__decap_12
XFILLER_8_158 VGND VGND VPWR VPWR sky130_fd_sc_hd__fill_2
X_465_ _504_/CLK _465_/D _398_/Y VGND VGND VPWR VPWR _465_/Q sky130_fd_sc_hd__dfrtp_1
XFILLER_5_106 VGND VGND VPWR VPWR sky130_fd_sc_hd__decap_6
X_396_ _405_/A VGND VGND VPWR VPWR _396_/Y sky130_fd_sc_hd__inv_2
XFILLER_4_43 VGND VGND VPWR VPWR sky130_ef_sc_hd__decap_12
XFILLER_13_96 VGND VGND VPWR VPWR sky130_fd_sc_hd__decap_6
XFILLER_13_52 VGND VGND VPWR VPWR sky130_fd_sc_hd__decap_4
X_250_ _459_/Q _462_/Q VGND VGND VPWR VPWR _250_/X sky130_fd_sc_hd__and2_1
X_379_ _383_/A VGND VGND VPWR VPWR _379_/Y sky130_fd_sc_hd__inv_2
X_448_ _476_/CLK _448_/D _379_/Y VGND VGND VPWR VPWR _448_/Q sky130_fd_sc_hd__dfrtp_1
XFILLER_1_186 VGND VGND VPWR VPWR sky130_fd_sc_hd__decap_8
XFILLER_1_164 VGND VGND VPWR VPWR sky130_fd_sc_hd__decap_4
X_302_ _479_/Q _482_/Q VGND VGND VPWR VPWR _302_/X sky130_fd_sc_hd__and2_1
XFILLER_1_99 VGND VGND VPWR VPWR sky130_fd_sc_hd__decap_4
XFILLER_1_66 VGND VGND VPWR VPWR sky130_fd_sc_hd__decap_6
X_233_ _453_/Q _456_/Q VGND VGND VPWR VPWR _237_/B sky130_fd_sc_hd__xor2_1
XFILLER_27_193 VGND VGND VPWR VPWR sky130_fd_sc_hd__fill_1
X_216_ _445_/D _216_/B VGND VGND VPWR VPWR _217_/A sky130_fd_sc_hd__and2_1
XFILLER_18_193 VGND VGND VPWR VPWR sky130_fd_sc_hd__fill_1
XFILLER_18_3 VGND VGND VPWR VPWR sky130_fd_sc_hd__fill_2
XFILLER_24_141 VGND VGND VPWR VPWR sky130_fd_sc_hd__fill_2
XFILLER_21_96 VGND VGND VPWR VPWR sky130_ef_sc_hd__decap_12
XFILLER_30_122 VGND VGND VPWR VPWR sky130_fd_sc_hd__decap_8
XFILLER_30_100 VGND VGND VPWR VPWR sky130_fd_sc_hd__decap_8
XPHY_5 VGND VGND VPWR VPWR sky130_fd_sc_hd__decap_3
XFILLER_7_54 VGND VGND VPWR VPWR sky130_fd_sc_hd__fill_2
XFILLER_32_40 VGND VGND VPWR VPWR sky130_fd_sc_hd__decap_4
XFILLER_16_85 VGND VGND VPWR VPWR sky130_ef_sc_hd__decap_12
XFILLER_8_104 VGND VGND VPWR VPWR sky130_fd_sc_hd__fill_1
XFILLER_8_137 VGND VGND VPWR VPWR sky130_fd_sc_hd__decap_3
X_481_ _504_/CLK _481_/D _415_/Y VGND VGND VPWR VPWR _481_/Q sky130_fd_sc_hd__dfrtp_1
XFILLER_7_192 VGND VGND VPWR VPWR sky130_fd_sc_hd__fill_2
X_464_ _497_/CLK _464_/D _397_/Y VGND VGND VPWR VPWR _464_/Q sky130_fd_sc_hd__dfrtp_1
Xclkbuf_3_2__f_clk clkbuf_0_clk/X VGND VGND VPWR VPWR _505_/CLK sky130_fd_sc_hd__clkbuf_16
X_395_ _442_/A VGND VGND VPWR VPWR _405_/A sky130_fd_sc_hd__buf_6
XFILLER_4_55 VGND VGND VPWR VPWR sky130_fd_sc_hd__decap_6
XFILLER_4_184 VGND VGND VPWR VPWR sky130_fd_sc_hd__decap_4
XFILLER_1_154 VGND VGND VPWR VPWR sky130_fd_sc_hd__decap_4
XFILLER_1_110 VGND VGND VPWR VPWR sky130_fd_sc_hd__fill_2
X_378_ _383_/A VGND VGND VPWR VPWR _378_/Y sky130_fd_sc_hd__inv_2
X_447_ _504_/CLK _447_/D _378_/Y VGND VGND VPWR VPWR _447_/Q sky130_fd_sc_hd__dfrtp_1
XFILLER_24_85 VGND VGND VPWR VPWR sky130_fd_sc_hd__decap_8
X_301_ _479_/Q _482_/Q VGND VGND VPWR VPWR _305_/B sky130_fd_sc_hd__xor2_1
X_232_ _232_/A _232_/B VGND VGND VPWR VPWR _452_/D sky130_fd_sc_hd__xnor2_1
X_215_ _370_/A _215_/B _445_/Q VGND VGND VPWR VPWR _216_/B sky130_fd_sc_hd__nand3_1
XFILLER_16_109 VGND VGND VPWR VPWR sky130_fd_sc_hd__decap_8
XFILLER_30_156 VGND VGND VPWR VPWR sky130_fd_sc_hd__decap_4
XFILLER_21_20 VGND VGND VPWR VPWR sky130_fd_sc_hd__fill_1
XPHY_6 VGND VGND VPWR VPWR sky130_fd_sc_hd__decap_3
XFILLER_30_3 VGND VGND VPWR VPWR sky130_fd_sc_hd__decap_6
XFILLER_21_156 VGND VGND VPWR VPWR sky130_ef_sc_hd__decap_12
XFILLER_32_96 VGND VGND VPWR VPWR sky130_fd_sc_hd__decap_4
XFILLER_32_85 VGND VGND VPWR VPWR sky130_fd_sc_hd__decap_8
XFILLER_16_97 VGND VGND VPWR VPWR sky130_ef_sc_hd__decap_12
XFILLER_12_189 VGND VGND VPWR VPWR sky130_fd_sc_hd__decap_4
X_480_ _496_/CLK _480_/D _414_/Y VGND VGND VPWR VPWR _480_/Q sky130_fd_sc_hd__dfrtp_1
X_463_ _497_/CLK _463_/D _396_/Y VGND VGND VPWR VPWR _463_/Q sky130_fd_sc_hd__dfrtp_1
X_394_ _394_/A VGND VGND VPWR VPWR _394_/Y sky130_fd_sc_hd__inv_2
XFILLER_4_141 VGND VGND VPWR VPWR sky130_fd_sc_hd__decap_8
XFILLER_13_65 VGND VGND VPWR VPWR sky130_fd_sc_hd__decap_3
XFILLER_1_133 VGND VGND VPWR VPWR sky130_ef_sc_hd__decap_12
XFILLER_1_122 VGND VGND VPWR VPWR sky130_fd_sc_hd__decap_4
X_377_ _383_/A VGND VGND VPWR VPWR _377_/Y sky130_fd_sc_hd__inv_2
XFILLER_8_3 VGND VGND VPWR VPWR sky130_fd_sc_hd__decap_4
X_446_ _478_/CLK _446_/D _377_/Y VGND VGND VPWR VPWR _446_/Q sky130_fd_sc_hd__dfrtp_1
X_300_ _300_/A _300_/B VGND VGND VPWR VPWR _478_/D sky130_fd_sc_hd__xnor2_1
XFILLER_24_64 VGND VGND VPWR VPWR sky130_ef_sc_hd__decap_12
XFILLER_24_20 VGND VGND VPWR VPWR sky130_fd_sc_hd__decap_8
X_231_ _316_/A _231_/B VGND VGND VPWR VPWR _232_/A sky130_fd_sc_hd__nand2_1
X_429_ _438_/A VGND VGND VPWR VPWR _429_/Y sky130_fd_sc_hd__inv_2