*SPEF "ieee 1481-1999"
*DESIGN "spm"
*DATE "11:11:11 Fri 11 11, 1111"
*VENDOR "OpenRCX"
*PROGRAM "Parallel Extraction"
*VERSION "1.0"
*DESIGN_FLOW "NAME_SCOPE LOCAL" "PIN_CAP NONE"
*DIVIDER /
*DELIMITER :
*BUS_DELIMITER []
*T_UNIT 1 NS
*C_UNIT 1 PF
*R_UNIT 1 OHM
*L_UNIT 1 HENRY

*NAME_MAP
*3 clk
*4 p
*5 rst
*6 x[0]
*7 x[10]
*8 x[11]
*9 x[12]
*10 x[13]
*11 x[14]
*12 x[15]
*13 x[16]
*14 x[17]
*15 x[18]
*16 x[19]
*17 x[1]
*18 x[20]
*19 x[21]
*20 x[22]
*21 x[23]
*22 x[24]
*23 x[25]
*24 x[26]
*25 x[27]
*26 x[28]
*27 x[29]
*28 x[2]
*29 x[30]
*30 x[31]
*31 x[3]
*32 x[4]
*33 x[5]
*34 x[6]
*35 x[7]
*36 x[8]
*37 x[9]
*38 y
*39 _000_
*40 _001_
*41 _002_
*42 _003_
*43 _004_
*44 _005_
*45 _006_
*46 _007_
*47 _008_
*48 _009_
*49 _010_
*50 _011_
*51 _012_
*52 _013_
*53 _014_
*54 _015_
*55 _016_
*56 _017_
*57 _018_
*58 _019_
*59 _020_
*60 _021_
*61 _022_
*62 _023_
*63 _024_
*64 _025_
*65 _026_
*66 _027_
*67 _028_
*68 _029_
*69 _030_
*70 _031_
*71 _032_
*72 _033_
*73 _034_
*74 _035_
*75 _036_
*76 _037_
*77 _038_
*78 _039_
*79 _040_
*80 _041_
*81 _042_
*82 _043_
*83 _044_
*84 _045_
*85 _046_
*86 _047_
*87 _048_
*88 _049_
*89 _050_
*90 _051_
*91 _052_
*92 _053_
*93 _054_
*94 _055_
*95 _056_
*96 _057_
*97 _058_
*98 _059_
*99 _060_
*100 _061_
*101 _062_
*102 _063_
*103 _064_
*104 _065_
*105 _066_
*106 _067_
*107 _068_
*108 _069_
*109 _070_
*110 _071_
*111 _072_
*112 _073_
*113 _074_
*114 _075_
*115 _076_
*116 _077_
*117 _078_
*118 _079_
*119 _080_
*120 _081_
*121 _082_
*122 _083_
*123 _084_
*124 _085_
*125 _086_
*126 _087_
*127 _088_
*128 _089_
*129 _090_
*130 _091_
*131 _092_
*132 _093_
*133 _094_
*134 _095_
*135 _096_
*136 _097_
*137 _098_
*138 _099_
*139 _100_
*140 _101_
*141 _102_
*142 _103_
*143 _104_
*144 _105_
*145 _106_
*146 _107_
*147 _108_
*148 _109_
*149 _110_
*150 _111_
*151 _112_
*152 _113_
*153 _114_
*154 _115_
*155 _116_
*156 _117_
*157 _118_
*158 _119_
*159 _120_
*160 _121_
*161 _122_
*162 _123_
*163 _124_
*164 _125_
*165 _126_
*166 _127_
*167 _128_
*168 _129_
*169 _130_
*170 _131_
*171 _132_
*172 _133_
*173 _134_
*174 _135_
*175 _136_
*176 _137_
*177 _138_
*178 _139_
*179 _140_
*180 _141_
*181 _142_
*182 _143_
*183 _144_
*184 _145_
*185 _146_
*186 _147_
*187 _148_
*188 _149_
*189 _150_
*190 _151_
*191 _152_
*192 _153_
*193 _154_
*194 _155_
*195 _156_
*196 _157_
*197 _158_
*198 _159_
*199 _160_
*200 _161_
*201 _162_
*202 _163_
*203 _164_
*204 _165_
*205 _166_
*206 _167_
*207 _168_
*208 _169_
*209 _170_
*210 _171_
*211 _172_
*212 _173_
*213 _174_
*214 _175_
*215 _176_
*216 _177_
*217 _178_
*218 _179_
*219 _180_
*220 _181_
*221 _182_
*222 _183_
*223 _184_
*224 _185_
*225 _186_
*226 _187_
*227 _188_
*228 _189_
*229 _190_
*230 _191_
*231 _192_
*232 _193_
*233 _194_
*234 _195_
*235 _196_
*236 _197_
*237 _198_
*238 _199_
*239 _200_
*240 _201_
*241 _202_
*242 _203_
*243 _204_
*244 _205_
*245 clknet_0_clk
*246 clknet_3_0__leaf_clk
*247 clknet_3_1__leaf_clk
*248 clknet_3_2__leaf_clk
*249 clknet_3_3__leaf_clk
*250 clknet_3_4__leaf_clk
*251 clknet_3_5__leaf_clk
*252 clknet_3_6__leaf_clk
*253 clknet_3_7__leaf_clk
*254 csa0\.hsum2
*255 csa0\.sc
*256 csa0\.y
*257 genblk1\[10\]\.csa\.hsum2
*258 genblk1\[10\]\.csa\.sc
*259 genblk1\[10\]\.csa\.sum
*260 genblk1\[10\]\.csa\.y
*261 genblk1\[11\]\.csa\.hsum2
*262 genblk1\[11\]\.csa\.sc
*263 genblk1\[11\]\.csa\.y
*264 genblk1\[12\]\.csa\.hsum2
*265 genblk1\[12\]\.csa\.sc
*266 genblk1\[12\]\.csa\.y
*267 genblk1\[13\]\.csa\.hsum2
*268 genblk1\[13\]\.csa\.sc
*269 genblk1\[13\]\.csa\.y
*270 genblk1\[14\]\.csa\.hsum2
*271 genblk1\[14\]\.csa\.sc
*272 genblk1\[14\]\.csa\.y
*273 genblk1\[15\]\.csa\.hsum2
*274 genblk1\[15\]\.csa\.sc
*275 genblk1\[15\]\.csa\.y
*276 genblk1\[16\]\.csa\.hsum2
*277 genblk1\[16\]\.csa\.sc
*278 genblk1\[16\]\.csa\.y
*279 genblk1\[17\]\.csa\.hsum2
*280 genblk1\[17\]\.csa\.sc
*281 genblk1\[17\]\.csa\.y
*282 genblk1\[18\]\.csa\.hsum2
*283 genblk1\[18\]\.csa\.sc
*284 genblk1\[18\]\.csa\.y
*285 genblk1\[19\]\.csa\.hsum2
*286 genblk1\[19\]\.csa\.sc
*287 genblk1\[19\]\.csa\.y
*288 genblk1\[1\]\.csa\.hsum2
*289 genblk1\[1\]\.csa\.sc
*290 genblk1\[1\]\.csa\.y
*291 genblk1\[20\]\.csa\.hsum2
*292 genblk1\[20\]\.csa\.sc
*293 genblk1\[20\]\.csa\.y
*294 genblk1\[21\]\.csa\.hsum2
*295 genblk1\[21\]\.csa\.sc
*296 genblk1\[21\]\.csa\.y
*297 genblk1\[22\]\.csa\.hsum2
*298 genblk1\[22\]\.csa\.sc
*299 genblk1\[22\]\.csa\.y
*300 genblk1\[23\]\.csa\.hsum2
*301 genblk1\[23\]\.csa\.sc
*302 genblk1\[23\]\.csa\.y
*303 genblk1\[24\]\.csa\.hsum2
*304 genblk1\[24\]\.csa\.sc
*305 genblk1\[24\]\.csa\.y
*306 genblk1\[25\]\.csa\.hsum2
*307 genblk1\[25\]\.csa\.sc
*308 genblk1\[25\]\.csa\.y
*309 genblk1\[26\]\.csa\.hsum2
*310 genblk1\[26\]\.csa\.sc
*311 genblk1\[26\]\.csa\.y
*312 genblk1\[27\]\.csa\.hsum2
*313 genblk1\[27\]\.csa\.sc
*314 genblk1\[27\]\.csa\.y
*315 genblk1\[28\]\.csa\.hsum2
*316 genblk1\[28\]\.csa\.sc
*317 genblk1\[28\]\.csa\.y
*318 genblk1\[29\]\.csa\.hsum2
*319 genblk1\[29\]\.csa\.sc
*320 genblk1\[29\]\.csa\.y
*321 genblk1\[2\]\.csa\.hsum2
*322 genblk1\[2\]\.csa\.sc
*323 genblk1\[2\]\.csa\.y
*324 genblk1\[30\]\.csa\.hsum2
*325 genblk1\[30\]\.csa\.sc
*326 genblk1\[30\]\.csa\.y
*327 genblk1\[3\]\.csa\.hsum2
*328 genblk1\[3\]\.csa\.sc
*329 genblk1\[3\]\.csa\.y
*330 genblk1\[4\]\.csa\.hsum2
*331 genblk1\[4\]\.csa\.sc
*332 genblk1\[4\]\.csa\.y
*333 genblk1\[5\]\.csa\.hsum2
*334 genblk1\[5\]\.csa\.sc
*335 genblk1\[5\]\.csa\.y
*336 genblk1\[6\]\.csa\.hsum2
*337 genblk1\[6\]\.csa\.sc
*338 genblk1\[6\]\.csa\.y
*339 genblk1\[7\]\.csa\.hsum2
*340 genblk1\[7\]\.csa\.sc
*341 genblk1\[7\]\.csa\.y
*342 genblk1\[8\]\.csa\.hsum2
*343 genblk1\[8\]\.csa\.sc
*344 genblk1\[8\]\.csa\.y
*345 genblk1\[9\]\.csa\.hsum2
*346 genblk1\[9\]\.csa\.sc
*347 net1
*348 net10
*349 net11
*350 net12
*351 net13
*352 net14
*353 net15
*354 net16
*355 net17
*356 net18
*357 net19
*358 net2
*359 net20
*360 net21
*361 net22
*362 net23
*363 net24
*364 net25
*365 net26
*366 net27
*367 net28
*368 net29
*369 net3
*370 net30
*371 net31
*372 net32
*373 net33
*374 net34
*375 net35
*376 net4
*377 net5
*378 net6
*379 net7
*380 net8
*381 net9
*382 tcmp\.z
*383 ANTENNA_1
*384 ANTENNA_2
*385 ANTENNA_3
*386 FILLER_0_102
*387 FILLER_0_109
*388 FILLER_0_113
*389 FILLER_0_121
*390 FILLER_0_129
*391 FILLER_0_137
*392 FILLER_0_141
*393 FILLER_0_147
*394 FILLER_0_15
*395 FILLER_0_151
*396 FILLER_0_163
*397 FILLER_0_167
*398 FILLER_0_169
*399 FILLER_0_184
*400 FILLER_0_192
*401 FILLER_0_27
*402 FILLER_0_29
*403 FILLER_0_3
*404 FILLER_0_41
*405 FILLER_0_53
*406 FILLER_0_57
*407 FILLER_0_69
*408 FILLER_0_81
*409 FILLER_0_85
*410 FILLER_0_90
*411 FILLER_10_105
*412 FILLER_10_117
*413 FILLER_10_138
*414 FILLER_10_141
*415 FILLER_10_15
*416 FILLER_10_163
*417 FILLER_10_171
*418 FILLER_10_192
*419 FILLER_10_26
*420 FILLER_10_29
*421 FILLER_10_3
*422 FILLER_10_35
*423 FILLER_10_56
*424 FILLER_10_80
*425 FILLER_10_85
*426 FILLER_10_89
*427 FILLER_10_93
*428 FILLER_11_10
*429 FILLER_11_106
*430 FILLER_11_113
*431 FILLER_11_125
*432 FILLER_11_137
*433 FILLER_11_145
*434 FILLER_11_16
*435 FILLER_11_166
*436 FILLER_11_169
*437 FILLER_11_181
*438 FILLER_11_193
*439 FILLER_11_24
*440 FILLER_11_3
*441 FILLER_11_30
*442 FILLER_11_36
*443 FILLER_11_47
*444 FILLER_11_55
*445 FILLER_11_57
*446 FILLER_11_69
*447 FILLER_11_81
*448 FILLER_11_85
*449 FILLER_12_119
*450 FILLER_12_12
*451 FILLER_12_138
*452 FILLER_12_141
*453 FILLER_12_146
*454 FILLER_12_153
*455 FILLER_12_181
*456 FILLER_12_185
*457 FILLER_12_189
*458 FILLER_12_19
*459 FILLER_12_193
*460 FILLER_12_27
*461 FILLER_12_29
*462 FILLER_12_3
*463 FILLER_12_44
*464 FILLER_12_56
*465 FILLER_12_79
*466 FILLER_12_83
*467 FILLER_12_85
*468 FILLER_12_93
*469 FILLER_12_97
*470 FILLER_13_102
*471 FILLER_13_106
*472 FILLER_13_113
*473 FILLER_13_121
*474 FILLER_13_142
*475 FILLER_13_15
*476 FILLER_13_166
*477 FILLER_13_169
*478 FILLER_13_192
*479 FILLER_13_23
*480 FILLER_13_3
*481 FILLER_13_33
*482 FILLER_13_39
*483 FILLER_13_45
*484 FILLER_13_52
*485 FILLER_13_57
*486 FILLER_13_65
*487 FILLER_13_7
*488 FILLER_13_71
*489 FILLER_13_83
*490 FILLER_13_91
*491 FILLER_13_96
*492 FILLER_14_10
*493 FILLER_14_109
*494 FILLER_14_133
*495 FILLER_14_139
*496 FILLER_14_141
*497 FILLER_14_146
*498 FILLER_14_178
*499 FILLER_14_189
*500 FILLER_14_193
*501 FILLER_14_22
*502 FILLER_14_29
*503 FILLER_14_3
*504 FILLER_14_42
*505 FILLER_14_66
*506 FILLER_14_78
*507 FILLER_14_82
*508 FILLER_14_85
*509 FILLER_15_108
*510 FILLER_15_113
*511 FILLER_15_135
*512 FILLER_15_143
*513 FILLER_15_147
*514 FILLER_15_15
*515 FILLER_15_159
*516 FILLER_15_167
*517 FILLER_15_169
*518 FILLER_15_19
*519 FILLER_15_192
*520 FILLER_15_27
*521 FILLER_15_3
*522 FILLER_15_31
*523 FILLER_15_37
*524 FILLER_15_46
*525 FILLER_15_50
*526 FILLER_15_54
*527 FILLER_15_57
*528 FILLER_15_61
*529 FILLER_15_69
*530 FILLER_15_75
*531 FILLER_15_96
*532 FILLER_16_109
*533 FILLER_16_117
*534 FILLER_16_12
*535 FILLER_16_138
*536 FILLER_16_141
*537 FILLER_16_150
*538 FILLER_16_162
*539 FILLER_16_170
*540 FILLER_16_192
*541 FILLER_16_24
*542 FILLER_16_29
*543 FILLER_16_3
*544 FILLER_16_38
*545 FILLER_16_49
*546 FILLER_16_73
*547 FILLER_16_81
*548 FILLER_16_85
*549 FILLER_16_97
*550 FILLER_17_10
*551 FILLER_17_110
*552 FILLER_17_113
*553 FILLER_17_121
*554 FILLER_17_144
*555 FILLER_17_148
*556 FILLER_17_156
*557 FILLER_17_162
*558 FILLER_17_166
*559 FILLER_17_169
*560 FILLER_17_191
*561 FILLER_17_23
*562 FILLER_17_3
*563 FILLER_17_35
*564 FILLER_17_47
*565 FILLER_17_55
*566 FILLER_17_57
*567 FILLER_17_62
*568 FILLER_17_74
*569 FILLER_17_78
*570 FILLER_17_99
*571 FILLER_18_107
*572 FILLER_18_116
*573 FILLER_18_12
*574 FILLER_18_128
*575 FILLER_18_141
*576 FILLER_18_153
*577 FILLER_18_181
*578 FILLER_18_193
*579 FILLER_18_24
*580 FILLER_18_29
*581 FILLER_18_3
*582 FILLER_18_38
*583 FILLER_18_46
*584 FILLER_18_68
*585 FILLER_18_79
*586 FILLER_18_83
*587 FILLER_18_85
*588 FILLER_19_110
*589 FILLER_19_113
*590 FILLER_19_121
*591 FILLER_19_14
*592 FILLER_19_142
*593 FILLER_19_166
*594 FILLER_19_169
*595 FILLER_19_18
*596 FILLER_19_192
*597 FILLER_19_22
*598 FILLER_19_29
*599 FILLER_19_3
*600 FILLER_19_37
*601 FILLER_19_45
*602 FILLER_19_54
*603 FILLER_19_57
*604 FILLER_19_79
*605 FILLER_19_86
*606 FILLER_1_110
*607 FILLER_1_113
*608 FILLER_1_122
*609 FILLER_1_133
*610 FILLER_1_145
*611 FILLER_1_15
*612 FILLER_1_154
*613 FILLER_1_164
*614 FILLER_1_169
*615 FILLER_1_186
*616 FILLER_1_27
*617 FILLER_1_3
*618 FILLER_1_35
*619 FILLER_1_39
*620 FILLER_1_50
*621 FILLER_1_57
*622 FILLER_1_66
*623 FILLER_1_79
*624 FILLER_1_90
*625 FILLER_1_99
*626 FILLER_20_127
*627 FILLER_20_139
*628 FILLER_20_141
*629 FILLER_20_15
*630 FILLER_20_153
*631 FILLER_20_165
*632 FILLER_20_177
*633 FILLER_20_189
*634 FILLER_20_193
*635 FILLER_20_24
*636 FILLER_20_29
*637 FILLER_20_3
*638 FILLER_20_37
*639 FILLER_20_58
*640 FILLER_20_82
*641 FILLER_20_85
*642 FILLER_20_92
*643 FILLER_20_99
*644 FILLER_21_108
*645 FILLER_21_113
*646 FILLER_21_12
*647 FILLER_21_121
*648 FILLER_21_125
*649 FILLER_21_149
*650 FILLER_21_156
*651 FILLER_21_169
*652 FILLER_21_191
*653 FILLER_21_20
*654 FILLER_21_3
*655 FILLER_21_34
*656 FILLER_21_46
*657 FILLER_21_54
*658 FILLER_21_57
*659 FILLER_21_61
*660 FILLER_21_65
*661 FILLER_21_72
*662 FILLER_21_96
*663 FILLER_22_101
*664 FILLER_22_122
*665 FILLER_22_134
*666 FILLER_22_141
*667 FILLER_22_145
*668 FILLER_22_15
*669 FILLER_22_166
*670 FILLER_22_192
*671 FILLER_22_27
*672 FILLER_22_29
*673 FILLER_22_3
*674 FILLER_22_39
*675 FILLER_22_63
*676 FILLER_22_72
*677 FILLER_22_8
*678 FILLER_22_85
*679 FILLER_22_97
*680 FILLER_23_104
*681 FILLER_23_113
*682 FILLER_23_12
*683 FILLER_23_121
*684 FILLER_23_142
*685 FILLER_23_166
*686 FILLER_23_169
*687 FILLER_23_191
*688 FILLER_23_23
*689 FILLER_23_3
*690 FILLER_23_32
*691 FILLER_23_44
*692 FILLER_23_57
*693 FILLER_23_79
*694 FILLER_23_83
*695 FILLER_24_115
*696 FILLER_24_127
*697 FILLER_24_13
*698 FILLER_24_139
*699 FILLER_24_141
*700 FILLER_24_146
*701 FILLER_24_158
*702 FILLER_24_166
*703 FILLER_24_170
*704 FILLER_24_178
*705 FILLER_24_183
*706 FILLER_24_190
*707 FILLER_24_20
*708 FILLER_24_29
*709 FILLER_24_3
*710 FILLER_24_38
*711 FILLER_24_64
*712 FILLER_24_76
*713 FILLER_24_85
*714 FILLER_24_9
*715 FILLER_24_93
*716 FILLER_25_103
*717 FILLER_25_11
*718 FILLER_25_111
*719 FILLER_25_113
*720 FILLER_25_125
*721 FILLER_25_146
*722 FILLER_25_15
*723 FILLER_25_158
*724 FILLER_25_162
*725 FILLER_25_166
*726 FILLER_25_169
*727 FILLER_25_176
*728 FILLER_25_180
*729 FILLER_25_184
*730 FILLER_25_19
*731 FILLER_25_191
*732 FILLER_25_26
*733 FILLER_25_3
*734 FILLER_25_33
*735 FILLER_25_44
*736 FILLER_25_57
*737 FILLER_25_64
*738 FILLER_25_7
*739 FILLER_25_76
*740 FILLER_25_80
*741 FILLER_25_91
*742 FILLER_26_104
*743 FILLER_26_116
*744 FILLER_26_124
*745 FILLER_26_130
*746 FILLER_26_134
*747 FILLER_26_141
*748 FILLER_26_148
*749 FILLER_26_15
*750 FILLER_26_159
*751 FILLER_26_163
*752 FILLER_26_167
*753 FILLER_26_178
*754 FILLER_26_184
*755 FILLER_26_190
*756 FILLER_26_26
*757 FILLER_26_29
*758 FILLER_26_3
*759 FILLER_26_35
*760 FILLER_26_39
*761 FILLER_26_52
*762 FILLER_26_71
*763 FILLER_26_80
*764 FILLER_26_85
*765 FILLER_26_9
*766 FILLER_26_92
*767 FILLER_26_96
*768 FILLER_27_103
*769 FILLER_27_110
*770 FILLER_27_113
*771 FILLER_27_122
*772 FILLER_27_135
*773 FILLER_27_146
*774 FILLER_27_157
*775 FILLER_27_164
*776 FILLER_27_169
*777 FILLER_27_174
*778 FILLER_27_18
*779 FILLER_27_189
*780 FILLER_27_193
*781 FILLER_27_25
*782 FILLER_27_3
*783 FILLER_27_35
*784 FILLER_27_42
*785 FILLER_27_46
*786 FILLER_27_54
*787 FILLER_27_57
*788 FILLER_27_66
*789 FILLER_27_81
*790 FILLER_27_92
*791 FILLER_28_100
*792 FILLER_28_11
*793 FILLER_28_112
*794 FILLER_28_118
*795 FILLER_28_125
*796 FILLER_28_132
*797 FILLER_28_141
*798 FILLER_28_147
*799 FILLER_28_154
*800 FILLER_28_165
*801 FILLER_28_176
*802 FILLER_28_183
*803 FILLER_28_190
*804 FILLER_28_21
*805 FILLER_28_27
*806 FILLER_28_29
*807 FILLER_28_3
*808 FILLER_28_38
*809 FILLER_28_46
*810 FILLER_28_54
*811 FILLER_28_61
*812 FILLER_28_68
*813 FILLER_28_75
*814 FILLER_28_82
*815 FILLER_28_85
*816 FILLER_28_92
*817 FILLER_29_103
*818 FILLER_29_110
*819 FILLER_29_113
*820 FILLER_29_12
*821 FILLER_29_121
*822 FILLER_29_128
*823 FILLER_29_135
*824 FILLER_29_142
*825 FILLER_29_148
*826 FILLER_29_152
*827 FILLER_29_16
*828 FILLER_29_163
*829 FILLER_29_167
*830 FILLER_29_169
*831 FILLER_29_174
*832 FILLER_29_180
*833 FILLER_29_186
*834 FILLER_29_20
*835 FILLER_29_27
*836 FILLER_29_3
*837 FILLER_29_34
*838 FILLER_29_41
*839 FILLER_29_52
*840 FILLER_29_57
*841 FILLER_29_64
*842 FILLER_29_75
*843 FILLER_29_83
*844 FILLER_29_90
*845 FILLER_29_98
*846 FILLER_2_102
*847 FILLER_2_114
*848 FILLER_2_126
*849 FILLER_2_134
*850 FILLER_2_138
*851 FILLER_2_141
*852 FILLER_2_145
*853 FILLER_2_15
*854 FILLER_2_153
*855 FILLER_2_157
*856 FILLER_2_165
*857 FILLER_2_176
*858 FILLER_2_180
*859 FILLER_2_192
*860 FILLER_2_27
*861 FILLER_2_29
*862 FILLER_2_3
*863 FILLER_2_37
*864 FILLER_2_47
*865 FILLER_2_53
*866 FILLER_2_60
*867 FILLER_2_71
*868 FILLER_2_78
*869 FILLER_2_85
*870 FILLER_2_90
*871 FILLER_2_94
*872 FILLER_30_100
*873 FILLER_30_108
*874 FILLER_30_115
*875 FILLER_30_122
*876 FILLER_30_13
*877 FILLER_30_130
*878 FILLER_30_137
*879 FILLER_30_141
*880 FILLER_30_149
*881 FILLER_30_156
*882 FILLER_30_163
*883 FILLER_30_171
*884 FILLER_30_179
*885 FILLER_30_190
*886 FILLER_30_23
*887 FILLER_30_27
*888 FILLER_30_29
*889 FILLER_30_3
*890 FILLER_30_35
*891 FILLER_30_41
*892 FILLER_30_52
*893 FILLER_30_60
*894 FILLER_30_68
*895 FILLER_30_79
*896 FILLER_30_83
*897 FILLER_30_85
*898 FILLER_30_9
*899 FILLER_31_109
*900 FILLER_31_113
*901 FILLER_31_12
*902 FILLER_31_122
*903 FILLER_31_133
*904 FILLER_31_140
*905 FILLER_31_150
*906 FILLER_31_156
*907 FILLER_31_164
*908 FILLER_31_169
*909 FILLER_31_178
*910 FILLER_31_18
*911 FILLER_31_185
*912 FILLER_31_192
*913 FILLER_31_26
*914 FILLER_31_3
*915 FILLER_31_40
*916 FILLER_31_54
*917 FILLER_31_57
*918 FILLER_31_61
*919 FILLER_31_65
*920 FILLER_31_76
*921 FILLER_31_87
*922 FILLER_31_98
*923 FILLER_32_103
*924 FILLER_32_110
*925 FILLER_32_113
*926 FILLER_32_118
*927 FILLER_32_12
*928 FILLER_32_125
*929 FILLER_32_132
*930 FILLER_32_141
*931 FILLER_32_146
*932 FILLER_32_153
*933 FILLER_32_160
*934 FILLER_32_169
*935 FILLER_32_174
*936 FILLER_32_192
*937 FILLER_32_26
*938 FILLER_32_29
*939 FILLER_32_3
*940 FILLER_32_40
*941 FILLER_32_54
*942 FILLER_32_57
*943 FILLER_32_70
*944 FILLER_32_78
*945 FILLER_32_82
*946 FILLER_32_85
*947 FILLER_32_96
*948 FILLER_3_106
*949 FILLER_3_110
*950 FILLER_3_113
*951 FILLER_3_121
*952 FILLER_3_125
*953 FILLER_3_147
*954 FILLER_3_15
*955 FILLER_3_158
*956 FILLER_3_165
*957 FILLER_3_169
*958 FILLER_3_176
*959 FILLER_3_183
*960 FILLER_3_19
*961 FILLER_3_190
*962 FILLER_3_23
*963 FILLER_3_3
*964 FILLER_3_35
*965 FILLER_3_39
*966 FILLER_3_46
*967 FILLER_3_50
*968 FILLER_3_54
*969 FILLER_3_57
*970 FILLER_3_79
*971 FILLER_3_85
*972 FILLER_3_91
*973 FILLER_3_98
*974 FILLER_4_101
*975 FILLER_4_122
*976 FILLER_4_134
*977 FILLER_4_141
*978 FILLER_4_15
*979 FILLER_4_169
*980 FILLER_4_176
*981 FILLER_4_180
*982 FILLER_4_184
*983 FILLER_4_19
*984 FILLER_4_191
*985 FILLER_4_26
*986 FILLER_4_29
*987 FILLER_4_3
*988 FILLER_4_35
*989 FILLER_4_43
*990 FILLER_4_55
*991 FILLER_4_61
*992 FILLER_4_82
*993 FILLER_4_85
*994 FILLER_4_97
*995 FILLER_5_106
*996 FILLER_5_113
*997 FILLER_5_135
*998 FILLER_5_15
*999 FILLER_5_159
*1000 FILLER_5_167
*1001 FILLER_5_169
*1002 FILLER_5_191
*1003 FILLER_5_24
*1004 FILLER_5_3
*1005 FILLER_5_35
*1006 FILLER_5_46
*1007 FILLER_5_54
*1008 FILLER_5_57
*1009 FILLER_5_7
*1010 FILLER_5_79
*1011 FILLER_5_85
*1012 FILLER_6_107
*1013 FILLER_6_114
*1014 FILLER_6_126
*1015 FILLER_6_13
*1016 FILLER_6_138
*1017 FILLER_6_141
*1018 FILLER_6_163
*1019 FILLER_6_187
*1020 FILLER_6_193
*1021 FILLER_6_21
*1022 FILLER_6_27
*1023 FILLER_6_29
*1024 FILLER_6_3
*1025 FILLER_6_39
*1026 FILLER_6_48
*1027 FILLER_6_60
*1028 FILLER_6_72
*1029 FILLER_6_85
*1030 FILLER_6_9
*1031 FILLER_7_110
*1032 FILLER_7_113
*1033 FILLER_7_13
*1034 FILLER_7_135
*1035 FILLER_7_163
*1036 FILLER_7_167
*1037 FILLER_7_169
*1038 FILLER_7_192
*1039 FILLER_7_26
*1040 FILLER_7_3
*1041 FILLER_7_54
*1042 FILLER_7_57
*1043 FILLER_7_69
*1044 FILLER_7_81
*1045 FILLER_7_89
*1046 FILLER_7_9
*1047 FILLER_8_104
*1048 FILLER_8_125
*1049 FILLER_8_13
*1050 FILLER_8_137
*1051 FILLER_8_141
*1052 FILLER_8_146
*1053 FILLER_8_158
*1054 FILLER_8_180
*1055 FILLER_8_186
*1056 FILLER_8_190
*1057 FILLER_8_25
*1058 FILLER_8_29
*1059 FILLER_8_3
*1060 FILLER_8_41
*1061 FILLER_8_53
*1062 FILLER_8_65
*1063 FILLER_8_7
*1064 FILLER_8_77
*1065 FILLER_8_83
*1066 FILLER_8_85
*1067 FILLER_8_92
*1068 FILLER_9_103
*1069 FILLER_9_111
*1070 FILLER_9_113
*1071 FILLER_9_12
*1072 FILLER_9_125
*1073 FILLER_9_137
*1074 FILLER_9_149
*1075 FILLER_9_153
*1076 FILLER_9_157
*1077 FILLER_9_165
*1078 FILLER_9_169
*1079 FILLER_9_192
*1080 FILLER_9_20
*1081 FILLER_9_3
*1082 FILLER_9_30
*1083 FILLER_9_45
*1084 FILLER_9_53
*1085 FILLER_9_57
*1086 FILLER_9_79
*1087 FILLER_9_91
*1088 PHY_0
*1089 PHY_1
*1090 PHY_10
*1091 PHY_11
*1092 PHY_12
*1093 PHY_13
*1094 PHY_14
*1095 PHY_15
*1096 PHY_16
*1097 PHY_17
*1098 PHY_18
*1099 PHY_19
*1100 PHY_2
*1101 PHY_20
*1102 PHY_21
*1103 PHY_22
*1104 PHY_23
*1105 PHY_24
*1106 PHY_25
*1107 PHY_26
*1108 PHY_27
*1109 PHY_28
*1110 PHY_29
*1111 PHY_3
*1112 PHY_30
*1113 PHY_31
*1114 PHY_32
*1115 PHY_33
*1116 PHY_34
*1117 PHY_35
*1118 PHY_36
*1119 PHY_37
*1120 PHY_38
*1121 PHY_39
*1122 PHY_4
*1123 PHY_40
*1124 PHY_41
*1125 PHY_42
*1126 PHY_43
*1127 PHY_44
*1128 PHY_45
*1129 PHY_46
*1130 PHY_47
*1131 PHY_48
*1132 PHY_49
*1133 PHY_5
*1134 PHY_50
*1135 PHY_51
*1136 PHY_52
*1137 PHY_53
*1138 PHY_54
*1139 PHY_55
*1140 PHY_56
*1141 PHY_57
*1142 PHY_58
*1143 PHY_59
*1144 PHY_6
*1145 PHY_60
*1146 PHY_61
*1147 PHY_62
*1148 PHY_63
*1149 PHY_64
*1150 PHY_65
*1151 PHY_7
*1152 PHY_8
*1153 PHY_9
*1154 TAP_100
*1155 TAP_101
*1156 TAP_102
*1157 TAP_103
*1158 TAP_104
*1159 TAP_105
*1160 TAP_106
*1161 TAP_107
*1162 TAP_108
*1163 TAP_109
*1164 TAP_110
*1165 TAP_111
*1166 TAP_112
*1167 TAP_113
*1168 TAP_114
*1169 TAP_115
*1170 TAP_116
*1171 TAP_117
*1172 TAP_118
*1173 TAP_119
*1174 TAP_120
*1175 TAP_121
*1176 TAP_122
*1177 TAP_123
*1178 TAP_124
*1179 TAP_125
*1180 TAP_126
*1181 TAP_127
*1182 TAP_128
*1183 TAP_129
*1184 TAP_130
*1185 TAP_131
*1186 TAP_132
*1187 TAP_133
*1188 TAP_134
*1189 TAP_135
*1190 TAP_136
*1191 TAP_137
*1192 TAP_138
*1193 TAP_139
*1194 TAP_140
*1195 TAP_141
*1196 TAP_142
*1197 TAP_143
*1198 TAP_144
*1199 TAP_145
*1200 TAP_146
*1201 TAP_147
*1202 TAP_148
*1203 TAP_149
*1204 TAP_150
*1205 TAP_151
*1206 TAP_152
*1207 TAP_153
*1208 TAP_154
*1209 TAP_155
*1210 TAP_156
*1211 TAP_157
*1212 TAP_158
*1213 TAP_159
*1214 TAP_160
*1215 TAP_161
*1216 TAP_162
*1217 TAP_163
*1218 TAP_164
*1219 TAP_165
*1220 TAP_166
*1221 TAP_167
*1222 TAP_168
*1223 TAP_169
*1224 TAP_170
*1225 TAP_66
*1226 TAP_67
*1227 TAP_68
*1228 TAP_69
*1229 TAP_70
*1230 TAP_71
*1231 TAP_72
*1232 TAP_73
*1233 TAP_74
*1234 TAP_75
*1235 TAP_76
*1236 TAP_77
*1237 TAP_78
*1238 TAP_79
*1239 TAP_80
*1240 TAP_81
*1241 TAP_82
*1242 TAP_83
*1243 TAP_84
*1244 TAP_85
*1245 TAP_86
*1246 TAP_87
*1247 TAP_88
*1248 TAP_89
*1249 TAP_90
*1250 TAP_91
*1251 TAP_92
*1252 TAP_93
*1253 TAP_94
*1254 TAP_95
*1255 TAP_96
*1256 TAP_97
*1257 TAP_98
*1258 TAP_99
*1259 _206_
*1260 _207_
*1261 _208_
*1262 _209_
*1263 _210_
*1264 _211_
*1265 _212_
*1266 _213_
*1267 _214_
*1268 _215_
*1269 _216_
*1270 _217_
*1271 _218_
*1272 _219_
*1273 _220_
*1274 _221_
*1275 _222_
*1276 _223_
*1277 _224_
*1278 _225_
*1279 _226_
*1280 _227_
*1281 _228_
*1282 _229_
*1283 _230_
*1284 _231_
*1285 _232_
*1286 _233_
*1287 _234_
*1288 _235_
*1289 _236_
*1290 _237_
*1291 _238_
*1292 _239_
*1293 _240_
*1294 _241_
*1295 _242_
*1296 _243_
*1297 _244_
*1298 _245_
*1299 _246_
*1300 _247_
*1301 _248_
*1302 _249_
*1303 _250_
*1304 _251_
*1305 _252_
*1306 _253_
*1307 _254_
*1308 _255_
*1309 _256_
*1310 _257_
*1311 _258_
*1312 _259_
*1313 _260_
*1314 _261_
*1315 _262_
*1316 _263_
*1317 _264_
*1318 _265_
*1319 _266_
*1320 _267_
*1321 _268_
*1322 _269_
*1323 _270_
*1324 _271_
*1325 _272_
*1326 _273_
*1327 _274_
*1328 _275_
*1329 _276_
*1330 _277_
*1331 _278_
*1332 _279_
*1333 _280_
*1334 _281_
*1335 _282_
*1336 _283_
*1337 _284_
*1338 _285_
*1339 _286_
*1340 _287_
*1341 _288_
*1342 _289_
*1343 _290_
*1344 _291_
*1345 _292_
*1346 _293_
*1347 _294_
*1348 _295_
*1349 _296_
*1350 _297_
*1351 _298_
*1352 _299_
*1353 _300_
*1354 _301_
*1355 _302_
*1356 _303_
*1357 _304_
*1358 _305_
*1359 _306_
*1360 _307_
*1361 _308_
*1362 _309_
*1363 _310_
*1364 _311_
*1365 _312_
*1366 _313_
*1367 _314_
*1368 _315_
*1369 _316_
*1370 _317_
*1371 _318_
*1372 _319_
*1373 _320_
*1374 _321_
*1375 _322_
*1376 _323_
*1377 _324_
*1378 _325_
*1379 _326_
*1380 _327_
*1381 _328_
*1382 _329_
*1383 _330_
*1384 _331_
*1385 _332_
*1386 _333_
*1387 _334_
*1388 _335_
*1389 _336_
*1390 _337_
*1391 _338_
*1392 _339_
*1393 _340_
*1394 _341_
*1395 _342_
*1396 _343_
*1397 _344_
*1398 _345_
*1399 _346_
*1400 _347_
*1401 _348_
*1402 _349_
*1403 _350_
*1404 _351_
*1405 _352_
*1406 _353_
*1407 _354_
*1408 _355_
*1409 _356_
*1410 _357_
*1411 _358_
*1412 _359_
*1413 _360_
*1414 _361_
*1415 _362_
*1416 _363_
*1417 _364_
*1418 _365_
*1419 _366_
*1420 _367_
*1421 _368_
*1422 _369_
*1423 _370_
*1424 _371_
*1425 _372_
*1426 _373_
*1427 _374_
*1428 _375_
*1429 _376_
*1430 _377_
*1431 _378_
*1432 _379_
*1433 _380_
*1434 _381_
*1435 _382_
*1436 _383_
*1437 _384_
*1438 _385_
*1439 _386_
*1440 _387_
*1441 _388_
*1442 _389_
*1443 _390_
*1444 _391_
*1445 _392_
*1446 _393_
*1447 _394_
*1448 _395_
*1449 _396_
*1450 _397_
*1451 _398_
*1452 _399_
*1453 _400_
*1454 _401_
*1455 _402_
*1456 _403_
*1457 _404_
*1458 _405_
*1459 _406_
*1460 _407_
*1461 _408_
*1462 _409_
*1463 _410_
*1464 _411_
*1465 _412_
*1466 _413_
*1467 _414_
*1468 _415_
*1469 _416_
*1470 _417_
*1471 _418_
*1472 _419_
*1473 _420_
*1474 _421_
*1475 _422_
*1476 _423_
*1477 _424_
*1478 _425_
*1479 _426_
*1480 _427_
*1481 _428_
*1482 _429_
*1483 _430_
*1484 _431_
*1485 _432_
*1486 _433_
*1487 _434_
*1488 _435_
*1489 _436_
*1490 _437_
*1491 _438_
*1492 _439_
*1493 _440_
*1494 _441_
*1495 _442_
*1496 _443_
*1497 _444_
*1498 _445_
*1499 _446_
*1500 _447_
*1501 _448_
*1502 _449_
*1503 _450_
*1504 _451_
*1505 _452_
*1506 _453_
*1507 _454_
*1508 _455_
*1509 _456_
*1510 _457_
*1511 _458_
*1512 _459_
*1513 _460_
*1514 _461_
*1515 _462_
*1516 _463_
*1517 _464_
*1518 _465_
*1519 _466_
*1520 _467_
*1521 _468_
*1522 _469_
*1523 _470_
*1524 _471_
*1525 _472_
*1526 _473_
*1527 _474_
*1528 _475_
*1529 _476_
*1530 _477_
*1531 _478_
*1532 _479_
*1533 _480_
*1534 _481_
*1535 _482_
*1536 _483_
*1537 _484_
*1538 _485_
*1539 _486_
*1540 _487_
*1541 _488_
*1542 _489_
*1543 _490_
*1544 _491_
*1545 _492_
*1546 _493_
*1547 _494_
*1548 _495_
*1549 _496_
*1550 _497_
*1551 _498_
*1552 _499_
*1553 _500_
*1554 _501_
*1555 _502_
*1556 _503_
*1557 _504_
*1558 _505_
*1559 _506_
*1560 clkbuf_0_clk
*1561 clkbuf_3_0__f_clk
*1562 clkbuf_3_1__f_clk
*1563 clkbuf_3_2__f_clk
*1564 clkbuf_3_3__f_clk
*1565 clkbuf_3_4__f_clk
*1566 clkbuf_3_5__f_clk
*1567 clkbuf_3_6__f_clk
*1568 clkbuf_3_7__f_clk
*1569 input1
*1570 input10
*1571 input11
*1572 input12
*1573 input13
*1574 input14
*1575 input15
*1576 input16
*1577 input17
*1578 input18
*1579 input19
*1580 input2
*1581 input20
*1582 input21
*1583 input22
*1584 input23
*1585 input24
*1586 input25
*1587 input26
*1588 input27
*1589 input28
*1590 input29
*1591 input3
*1592 input30
*1593 input31
*1594 input32
*1595 input33
*1596 input34
*1597 input4
*1598 input5
*1599 input6
*1600 input7
*1601 input8
*1602 input9
*1603 output35

*PORTS
clk I
p O
rst I
x[0] I
x[10] I
x[11] I
x[12] I
x[13] I
x[14] I
x[15] I
x[16] I
x[17] I
x[18] I
x[19] I
x[1] I
x[20] I
x[21] I
x[22] I
x[23] I
x[24] I
x[25] I
x[26] I
x[27] I
x[28] I
x[29] I
x[2] I
x[30] I
x[31] I
x[3] I
x[4] I
x[5] I
x[6] I
x[7] I
x[8] I
x[9] I
y I

*D_NET *3 0.00407266
*CONN
*P clk I
*I *1560:A I *D sky130_fd_sc_hd__clkbuf_16
*CAP
1 clk 0.00203633
2 *1560:A 0.00203633
3 *1560:A *1436:A 0
4 *1560:A *1459:A 0
5 *1560:A *1497:RESET_B 0
6 *1560:A *1505:RESET_B 0
7 *1560:A *1568:A 0
8 *1560:A *161:98 0
9 *1560:A *240:80 0
10 *1560:A *260:27 0
11 *1560:A *344:19 0
*RES
1 clk *1560:A 44.45 
*END

*D_NET *4 0.000561581
*CONN
*P p O
*I *1603:X O *D sky130_fd_sc_hd__buf_2
*CAP
1 p 0.00028079
2 *1603:X 0.00028079
3 p *255:30 0
*RES
1 *1603:X p 18.7147 
*END

*D_NET *5 0.00120806
*CONN
*P rst I
*I *1569:A I *D sky130_fd_sc_hd__clkbuf_1
*CAP
1 rst 0.000604028
2 *1569:A 0.000604028
3 *1569:A *1425:A 0
4 *1569:A *372:37 0
*RES
1 rst *1569:A 27.9786 
*END

*D_NET *6 0.00302366
*CONN
*P x[0] I
*I *1580:A I *D sky130_fd_sc_hd__clkbuf_1
*CAP
1 x[0] 0.00151183
2 *1580:A 0.00151183
3 *1580:A *1320:A2 0
4 *1580:A *1322:B 0
5 *1580:A *1420:A 0
6 *1580:A *1573:A 0
7 *1580:A *358:7 0
8 *1580:A *369:10 0
*RES
1 x[0] *1580:A 48.05 
*END

*D_NET *7 0.0029507
*CONN
*P x[10] I
*I *1591:A I *D sky130_fd_sc_hd__clkbuf_1
*CAP
1 x[10] 0.00147535
2 *1591:A 0.00147535
3 *1591:A *1327:B 0
4 *1591:A *1589:A 0
5 *1591:A *1595:A 0
6 *1591:A *1597:A 0
7 *1591:A *350:16 0
8 *1591:A *367:7 0
*RES
1 x[10] *1591:A 45.2464 
*END

*D_NET *8 0.00265569
*CONN
*P x[11] I
*I *1597:A I *D sky130_fd_sc_hd__clkbuf_1
*CAP
1 x[11] 0.00132785
2 *1597:A 0.00132785
3 *1597:A *1324:B 0
4 *1597:A *1326:A 0
5 *1597:A *1353:A 0
6 *1597:A *1353:B 0
7 *1597:A *1374:B 0
8 *1597:A *1598:A 0
9 *1597:A *136:64 0
10 *1597:A *348:21 0
11 *1597:A *373:10 0
12 *1597:A *380:17 0
13 *1591:A *1597:A 0
*RES
1 x[11] *1597:A 42.7821 
*END

*D_NET *9 0.00207814
*CONN
*P x[12] I
*I *1598:A I *D sky130_fd_sc_hd__clkbuf_1
*CAP
1 x[12] 0.00103907
2 *1598:A 0.00103907
3 *1598:A *1373:B 0
4 *1598:A *1374:B 0
5 *1598:A *1385:A 0
6 *1598:A *1388:A 0
7 *1598:A *1480:A 0
8 *1598:A *1599:A 0
9 *1598:A *136:64 0
10 *1598:A *348:21 0
11 *1598:A *380:17 0
12 *1597:A *1598:A 0
*RES
1 x[12] *1598:A 46.0143 
*END

*D_NET *10 0.00203619
*CONN
*P x[13] I
*I *1599:A I *D sky130_fd_sc_hd__clkbuf_1
*CAP
1 x[13] 0.00101809
2 *1599:A 0.00101809
3 *1599:A *1361:B1 0
4 *1599:A *1373:B 0
5 *1599:A *1388:A 0
6 *1599:A *1389:A 0
7 *1599:A *1600:A 0
8 *1599:A *119:13 0
9 *1599:A *243:38 0
10 *1599:A *285:29 0
11 *1599:A *349:14 0
12 *1598:A *1599:A 0
*RES
1 x[13] *1599:A 36.6036 
*END

*D_NET *11 0.00199762
*CONN
*P x[14] I
*I *1600:A I *D sky130_fd_sc_hd__clkbuf_1
*CAP
1 x[14] 0.000998809
2 *1600:A 0.000998809
3 *1600:A *1385:A 0
4 *1600:A *1387:A3 0
5 *1600:A *1388:B 0
6 *1600:A *1601:A 0
7 *1600:A *214:5 0
8 *1600:A *285:17 0
9 *1600:A *349:14 0
10 *1599:A *1600:A 0
*RES
1 x[14] *1600:A 35.4607 
*END

*D_NET *12 0.000794157
*CONN
*P x[15] I
*I *1601:A I *D sky130_fd_sc_hd__clkbuf_1
*CAP
1 x[15] 0.000397079
2 *1601:A 0.000397079
3 *1601:A *1602:A 0
4 *1600:A *1601:A 0
*RES
1 x[15] *1601:A 22.8179 
*END

*D_NET *13 0.000845495
*CONN
*P x[16] I
*I *1602:A I *D sky130_fd_sc_hd__clkbuf_1
*CAP
1 x[16] 0.000422747
2 *1602:A 0.000422747
3 *1602:A *1570:A 0
4 *1602:A *350:16 0
5 *1601:A *1602:A 0
*RES
1 x[16] *1602:A 23.3536 
*END

*D_NET *14 0.00122196
*CONN
*P x[17] I
*I *1570:A I *D sky130_fd_sc_hd__clkbuf_1
*CAP
1 x[17] 0.000610982
2 *1570:A 0.000610982
3 *1570:A *1379:A 0
4 *1570:A *1572:A 0
5 *1570:A *349:14 0
6 *1602:A *1570:A 0
*RES
1 x[17] *1570:A 27.3 
*END

*D_NET *15 0.00123424
*CONN
*P x[18] I
*I *1571:A I *D sky130_fd_sc_hd__clkbuf_1
*CAP
1 x[18] 0.000617121
2 *1571:A 0.000617121
3 *1571:A *1379:A 0
4 *1571:A *1572:A 0
5 *1571:A *353:23 0
*RES
1 x[18] *1571:A 27.5857 
*END

*D_NET *16 0.0012675
*CONN
*P x[19] I
*I *1572:A I *D sky130_fd_sc_hd__clkbuf_1
*CAP
1 x[19] 0.000633748
2 *1572:A 0.000633748
3 *1572:A *1574:A 0
4 *1572:A *348:16 0
5 *1570:A *1572:A 0
6 *1571:A *1572:A 0
*RES
1 x[19] *1572:A 27.7821 
*END

*D_NET *17 0.00307596
*CONN
*P x[1] I
*I *1573:A I *D sky130_fd_sc_hd__clkbuf_1
*CAP
1 x[1] 0.00153798
2 *1573:A 0.00153798
3 *1573:A *1368:A 0
4 *1573:A *1420:B 0
5 *1573:A *1424:B 0
6 *1573:A *1585:A 0
7 *1573:A *136:39 0
8 *1573:A *161:10 0
9 *1573:A *325:16 0
10 *1573:A *326:12 0
11 *1573:A *351:7 0
12 *1573:A *369:10 0
13 *1580:A *1573:A 0
*RES
1 x[1] *1573:A 48.7107 
*END

*D_NET *18 0.00161367
*CONN