*SPEF "ieee 1481-1999"
*DESIGN "spm"
*DATE "11:11:11 Fri 11 11, 1111"
*VENDOR "OpenRCX"
*PROGRAM "Parallel Extraction"
*VERSION "1.0"
*DESIGN_FLOW "NAME_SCOPE LOCAL" "PIN_CAP NONE"
*DIVIDER /
*DELIMITER :
*BUS_DELIMITER []
*T_UNIT 1 NS
*C_UNIT 1 PF
*R_UNIT 1 OHM
*L_UNIT 1 HENRY

*NAME_MAP
*3 io_in[0]
*4 io_in[10]
*5 io_in[11]
*6 io_in[12]
*7 io_in[13]
*8 io_in[14]
*9 io_in[15]
*10 io_in[16]
*11 io_in[17]
*12 io_in[18]
*13 io_in[19]
*14 io_in[1]
*15 io_in[20]
*16 io_in[21]
*17 io_in[22]
*18 io_in[23]
*19 io_in[24]
*20 io_in[25]
*21 io_in[26]
*22 io_in[27]
*23 io_in[28]
*24 io_in[29]
*25 io_in[2]
*26 io_in[30]
*27 io_in[31]
*28 io_in[32]
*29 io_in[33]
*30 io_in[34]
*31 io_in[35]
*32 io_in[36]
*33 io_in[37]
*34 io_in[3]
*35 io_in[4]
*36 io_in[5]
*37 io_in[6]
*38 io_in[7]
*39 io_in[8]
*40 io_in[9]
*41 io_oeb[0]
*42 io_oeb[10]
*43 io_oeb[11]
*44 io_oeb[12]
*45 io_oeb[13]
*46 io_oeb[14]
*47 io_oeb[15]
*48 io_oeb[16]
*49 io_oeb[17]
*50 io_oeb[18]
*51 io_oeb[19]
*52 io_oeb[1]
*53 io_oeb[20]
*54 io_oeb[21]
*55 io_oeb[22]
*56 io_oeb[23]
*57 io_oeb[24]
*58 io_oeb[25]
*59 io_oeb[26]
*60 io_oeb[27]
*61 io_oeb[28]
*62 io_oeb[29]
*63 io_oeb[2]
*64 io_oeb[30]
*65 io_oeb[31]
*66 io_oeb[32]
*67 io_oeb[33]
*68 io_oeb[34]
*69 io_oeb[35]
*70 io_oeb[36]
*71 net144
*72 io_oeb[3]
*73 io_oeb[4]
*74 io_oeb[5]
*75 io_oeb[6]
*76 io_oeb[7]
*77 io_oeb[8]
*78 io_oeb[9]
*79 net145
*80 net155
*81 net156
*82 net157
*83 net158
*84 net159
*85 net160
*86 net161
*87 net162
*88 net163
*89 net164
*90 net146
*91 net165
*92 net166
*93 net167
*94 net168
*95 net169
*96 net170
*97 net171
*98 net172
*99 net173
*100 net174
*101 net147
*102 net175
*103 net176
*104 net177
*105 net178
*106 net179
*107 net180
*108 net181
*109 net182
*110 net148
*111 net149
*112 net150
*113 net151
*114 net152
*115 net153
*116 net154
*117 net183
*118 net184
*119 net185
*120 la_data_in[0]
*121 la_data_in[100]
*122 la_data_in[101]
*123 la_data_in[102]
*124 la_data_in[103]
*125 la_data_in[104]
*126 la_data_in[105]
*127 la_data_in[106]
*128 la_data_in[107]
*129 la_data_in[108]
*130 la_data_in[109]
*131 la_data_in[10]
*132 la_data_in[110]
*133 la_data_in[111]
*134 la_data_in[112]
*135 la_data_in[113]
*136 la_data_in[114]
*137 la_data_in[115]
*138 la_data_in[116]
*139 la_data_in[117]
*140 la_data_in[118]
*141 la_data_in[119]
*142 la_data_in[11]
*143 la_data_in[120]
*144 la_data_in[121]
*145 la_data_in[122]
*146 la_data_in[123]
*147 la_data_in[124]
*148 la_data_in[125]
*149 la_data_in[126]
*150 la_data_in[127]
*151 la_data_in[12]
*152 la_data_in[13]
*153 la_data_in[14]
*154 la_data_in[15]
*155 la_data_in[16]
*156 la_data_in[17]
*157 la_data_in[18]
*158 la_data_in[19]
*159 la_data_in[1]
*160 la_data_in[20]
*161 la_data_in[21]
*162 la_data_in[22]
*163 la_data_in[23]
*164 la_data_in[24]
*165 la_data_in[25]
*166 la_data_in[26]
*167 la_data_in[27]
*168 la_data_in[28]
*169 la_data_in[29]
*170 la_data_in[2]
*171 la_data_in[30]
*172 la_data_in[31]
*173 la_data_in[32]
*174 la_data_in[33]
*175 la_data_in[34]
*176 la_data_in[35]
*177 la_data_in[36]
*178 la_data_in[37]
*179 la_data_in[38]
*180 la_data_in[39]
*181 la_data_in[3]
*182 la_data_in[40]
*183 la_data_in[41]
*184 la_data_in[42]
*185 la_data_in[43]
*186 la_data_in[44]
*187 la_data_in[45]
*188 la_data_in[46]
*189 la_data_in[47]
*190 la_data_in[48]
*191 la_data_in[49]
*192 la_data_in[4]
*193 la_data_in[50]
*194 la_data_in[51]
*195 la_data_in[52]
*196 la_data_in[53]
*197 la_data_in[54]
*198 la_data_in[55]
*199 la_data_in[56]
*200 la_data_in[57]
*201 la_data_in[58]
*202 la_data_in[59]
*203 la_data_in[5]
*204 la_data_in[60]
*205 la_data_in[61]
*206 la_data_in[62]
*207 la_data_in[63]
*208 la_data_in[64]
*209 la_data_in[65]
*210 la_data_in[66]
*211 la_data_in[67]
*212 la_data_in[68]
*213 la_data_in[69]
*214 la_data_in[6]
*215 la_data_in[70]
*216 la_data_in[71]
*217 la_data_in[72]
*218 la_data_in[73]
*219 la_data_in[74]
*220 la_data_in[75]
*221 la_data_in[76]
*222 la_data_in[77]
*223 la_data_in[78]
*224 la_data_in[79]
*225 la_data_in[7]
*226 la_data_in[80]
*227 la_data_in[81]
*228 la_data_in[82]
*229 la_data_in[83]
*230 la_data_in[84]
*231 la_data_in[85]
*232 la_data_in[86]
*233 la_data_in[87]
*234 la_data_in[88]
*235 la_data_in[89]
*236 la_data_in[8]
*237 la_data_in[90]
*238 la_data_in[91]
*239 la_data_in[92]
*240 la_data_in[93]
*241 la_data_in[94]
*242 la_data_in[95]
*243 la_data_in[96]
*244 la_data_in[97]
*245 la_data_in[98]
*246 la_data_in[99]
*247 la_data_in[9]
*248 net186
*249 net286
*250 net287
*251 net288
*252 net289
*253 net290
*254 net291
*255 net292
*256 net293
*257 net294
*258 net295
*259 net196
*260 net296
*261 net297
*262 net298
*263 net299
*264 net300
*265 net301
*266 net302
*267 net303
*268 net304
*269 net305
*270 net197
*271 net306
*272 net307
*273 net308
*274 net309
*275 net310
*276 net311
*277 net312
*278 net313
*279 net198
*280 net199
*281 net200
*282 net201
*283 net202
*284 net203
*285 net204
*286 net205
*287 net187
*288 net206
*289 net207
*290 net208
*291 net209
*292 net210
*293 net211
*294 net212
*295 net213
*296 net214
*297 net215
*298 net188
*299 net216
*300 net217
*301 net218
*302 net219
*303 net220
*304 net221
*305 net222
*306 net223
*307 net224
*308 net225
*309 net189
*310 net226
*311 net227
*312 net228
*313 net229
*314 net230
*315 net231
*316 net232
*317 net233
*318 net234
*319 net235
*320 net190
*321 net236
*322 net237
*323 net238
*324 net239
*325 net240
*326 net241
*327 net242
*328 net243
*329 net244
*330 net245
*331 net191
*332 net246
*333 net247
*334 net248
*335 net249
*336 net250
*337 net251
*338 net252
*339 net253
*340 net254
*341 net255
*342 net192
*343 net256
*344 net257
*345 net258
*346 net259
*347 net260
*348 net261
*349 net262
*350 net263
*351 net264
*352 net265
*353 net193
*354 net266
*355 net267
*356 net268
*357 net269
*358 net270
*359 net271
*360 net272
*361 net273
*362 net274
*363 net275
*364 net194
*365 net276
*366 net277
*367 net278
*368 net279
*369 net280
*370 net281
*371 net282
*372 net283
*373 net284
*374 net285
*375 net195
*376 la_oenb[0]
*377 la_oenb[100]
*378 la_oenb[101]
*379 la_oenb[102]
*380 la_oenb[103]
*381 la_oenb[104]
*382 la_oenb[105]
*383 la_oenb[106]
*384 la_oenb[107]
*385 la_oenb[108]
*386 la_oenb[109]
*387 la_oenb[10]
*388 la_oenb[110]
*389 la_oenb[111]
*390 la_oenb[112]
*391 la_oenb[113]
*392 la_oenb[114]
*393 la_oenb[115]
*394 la_oenb[116]
*395 la_oenb[117]
*396 la_oenb[118]
*397 la_oenb[119]
*398 la_oenb[11]
*399 la_oenb[120]
*400 la_oenb[121]
*401 la_oenb[122]
*402 la_oenb[123]
*403 la_oenb[124]
*404 la_oenb[125]
*405 la_oenb[126]
*406 la_oenb[127]
*407 la_oenb[12]
*408 la_oenb[13]
*409 la_oenb[14]
*410 la_oenb[15]
*411 la_oenb[16]
*412 la_oenb[17]
*413 la_oenb[18]
*414 la_oenb[19]
*415 la_oenb[1]
*416 la_oenb[20]
*417 la_oenb[21]
*418 la_oenb[22]
*419 la_oenb[23]
*420 la_oenb[24]
*421 la_oenb[25]
*422 la_oenb[26]
*423 la_oenb[27]
*424 la_oenb[28]
*425 la_oenb[29]
*426 la_oenb[2]
*427 la_oenb[30]
*428 la_oenb[31]
*429 la_oenb[32]
*430 la_oenb[33]
*431 la_oenb[34]
*432 la_oenb[35]
*433 la_oenb[36]
*434 la_oenb[37]
*435 la_oenb[38]
*436 la_oenb[39]
*437 la_oenb[3]
*438 la_oenb[40]
*439 la_oenb[41]
*440 la_oenb[42]
*441 la_oenb[43]
*442 la_oenb[44]
*443 la_oenb[45]
*444 la_oenb[46]
*445 la_oenb[47]
*446 la_oenb[48]
*447 la_oenb[49]
*448 la_oenb[4]
*449 la_oenb[50]
*450 la_oenb[51]
*451 la_oenb[52]
*452 la_oenb[53]
*453 la_oenb[54]
*454 la_oenb[55]
*455 la_oenb[56]
*456 la_oenb[57]
*457 la_oenb[58]
*458 la_oenb[59]
*459 la_oenb[5]
*460 la_oenb[60]
*461 la_oenb[61]
*462 la_oenb[62]
*463 la_oenb[63]
*464 la_oenb[64]
*465 la_oenb[65]
*466 la_oenb[66]
*467 la_oenb[67]
*468 la_oenb[68]
*469 la_oenb[69]
*470 la_oenb[6]
*471 la_oenb[70]
*472 la_oenb[71]
*473 la_oenb[72]
*474 la_oenb[73]
*475 la_oenb[74]
*476 la_oenb[75]
*477 la_oenb[76]
*478 la_oenb[77]
*479 la_oenb[78]
*480 la_oenb[79]
*481 la_oenb[7]
*482 la_oenb[80]
*483 la_oenb[81]
*484 la_oenb[82]
*485 la_oenb[83]
*486 la_oenb[84]
*487 la_oenb[85]
*488 la_oenb[86]
*489 la_oenb[87]
*490 la_oenb[88]
*491 la_oenb[89]
*492 la_oenb[8]
*493 la_oenb[90]
*494 la_oenb[91]
*495 la_oenb[92]
*496 la_oenb[93]
*497 la_oenb[94]
*498 la_oenb[95]
*499 la_oenb[96]
*500 la_oenb[97]
*501 la_oenb[98]
*502 la_oenb[99]
*503 la_oenb[9]
*506 wb_clk_i
*507 wb_rst_i
*508 wbs_ack_o
*509 wbs_adr_i[0]
*510 wbs_adr_i[10]
*511 wbs_adr_i[11]
*512 wbs_adr_i[12]
*513 wbs_adr_i[13]
*514 wbs_adr_i[14]
*515 wbs_adr_i[15]
*516 wbs_adr_i[16]
*517 wbs_adr_i[17]
*518 wbs_adr_i[18]
*519 wbs_adr_i[19]
*520 wbs_adr_i[1]
*521 wbs_adr_i[20]
*522 wbs_adr_i[21]
*523 wbs_adr_i[22]
*524 wbs_adr_i[23]
*525 wbs_adr_i[24]
*526 wbs_adr_i[25]
*527 wbs_adr_i[26]
*528 wbs_adr_i[27]
*529 wbs_adr_i[28]
*530 wbs_adr_i[29]
*531 wbs_adr_i[2]
*532 wbs_adr_i[30]
*533 wbs_adr_i[31]
*534 wbs_adr_i[3]
*535 wbs_adr_i[4]
*536 wbs_adr_i[5]
*537 wbs_adr_i[6]
*538 wbs_adr_i[7]
*539 wbs_adr_i[8]
*540 wbs_adr_i[9]
*541 wbs_cyc_i
*542 wbs_dat_i[0]
*543 wbs_dat_i[10]
*544 wbs_dat_i[11]
*545 wbs_dat_i[12]
*546 wbs_dat_i[13]
*547 wbs_dat_i[14]
*548 wbs_dat_i[15]
*549 wbs_dat_i[16]
*550 wbs_dat_i[17]
*551 wbs_dat_i[18]
*552 wbs_dat_i[19]
*553 wbs_dat_i[1]
*554 wbs_dat_i[20]
*555 wbs_dat_i[21]
*556 wbs_dat_i[22]
*557 wbs_dat_i[23]
*558 wbs_dat_i[24]
*559 wbs_dat_i[25]
*560 wbs_dat_i[26]
*561 wbs_dat_i[27]
*562 wbs_dat_i[28]
*563 wbs_dat_i[29]
*564 wbs_dat_i[2]
*565 wbs_dat_i[30]
*566 wbs_dat_i[31]
*567 wbs_dat_i[3]
*568 wbs_dat_i[4]
*569 wbs_dat_i[5]
*570 wbs_dat_i[6]
*571 wbs_dat_i[7]
*572 wbs_dat_i[8]
*573 wbs_dat_i[9]
*574 wbs_dat_o[0]
*575 wbs_dat_o[10]
*576 wbs_dat_o[11]
*577 wbs_dat_o[12]
*578 wbs_dat_o[13]
*579 wbs_dat_o[14]
*580 wbs_dat_o[15]
*581 wbs_dat_o[16]
*582 wbs_dat_o[17]
*583 wbs_dat_o[18]
*584 wbs_dat_o[19]
*585 wbs_dat_o[1]
*586 wbs_dat_o[20]
*587 wbs_dat_o[21]
*588 wbs_dat_o[22]
*589 wbs_dat_o[23]
*590 wbs_dat_o[24]
*591 wbs_dat_o[25]
*592 wbs_dat_o[26]
*593 wbs_dat_o[27]
*594 wbs_dat_o[28]
*595 wbs_dat_o[29]
*596 wbs_dat_o[2]
*597 wbs_dat_o[30]
*598 wbs_dat_o[31]
*599 wbs_dat_o[3]
*600 wbs_dat_o[4]
*601 wbs_dat_o[5]
*602 wbs_dat_o[6]
*603 wbs_dat_o[7]
*604 wbs_dat_o[8]
*605 wbs_dat_o[9]
*606 wbs_sel_i[0]
*607 wbs_sel_i[1]
*608 wbs_sel_i[2]
*609 wbs_sel_i[3]
*610 wbs_stb_i
*611 wbs_we_i
*612 CNT\[0\]
*613 CNT\[1\]
*614 CNT\[2\]
*615 CNT\[3\]
*616 CNT\[4\]
*617 CNT\[5\]
*618 CNT\[6\]
*619 CNT\[7\]
*620 P0\[0\]
*621 P0\[10\]
*622 P0\[11\]
*623 P0\[12\]
*624 P0\[13\]
*625 P0\[14\]
*626 P0\[15\]
*627 P0\[16\]
*628 P0\[17\]
*629 P0\[18\]
*630 P0\[19\]
*631 P0\[1\]
*632 P0\[20\]
*633 P0\[21\]
*634 P0\[22\]
*635 P0\[23\]
*636 P0\[24\]
*637 P0\[25\]
*638 P0\[26\]
*639 P0\[27\]
*640 P0\[28\]
*641 P0\[29\]
*642 P0\[2\]
*643 P0\[30\]
*644 P0\[31\]
*645 P0\[32\]
*646 P0\[33\]
*647 P0\[34\]
*648 P0\[35\]
*649 P0\[36\]
*650 P0\[37\]
*651 P0\[38\]
*652 P0\[39\]
*653 P0\[3\]
*654 P0\[40\]
*655 P0\[41\]
*656 P0\[42\]
*657 P0\[43\]
*658 P0\[44\]
*659 P0\[45\]
*660 P0\[46\]
*661 P0\[47\]
*662 P0\[48\]
*663 P0\[49\]
*664 P0\[4\]
*665 P0\[50\]
*666 P0\[51\]
*667 P0\[52\]
*668 P0\[53\]
*669 P0\[54\]
*670 P0\[55\]
*671 P0\[56\]
*672 P0\[57\]
*673 P0\[58\]
*674 P0\[59\]
*675 P0\[5\]
*676 P0\[60\]
*677 P0\[61\]
*678 P0\[62\]
*679 P0\[63\]
*680 P0\[6\]
*681 P0\[7\]
*682 P0\[8\]
*683 P0\[9\]
*684 STATE
*685 Y\[10\]
*686 Y\[11\]
*687 Y\[12\]
*688 Y\[13\]
*689 Y\[14\]
*690 Y\[15\]
*691 Y\[16\]
*692 Y\[17\]
*693 Y\[18\]
*694 Y\[19\]
*695 Y\[1\]
*696 Y\[20\]
*697 Y\[21\]
*698 Y\[22\]
*699 Y\[23\]
*700 Y\[24\]
*701 Y\[25\]
*702 Y\[26\]
*703 Y\[27\]
*704 Y\[28\]
*705 Y\[29\]
*706 Y\[2\]
*707 Y\[30\]
*708 Y\[31\]
*709 Y\[3\]
*710 Y\[4\]
*711 Y\[5\]
*712 Y\[6\]
*713 Y\[7\]
*714 Y\[8\]
*715 Y\[9\]
*716 _0000_
*717 _0001_
*718 _0002_
*719 _0003_
*720 _0004_
*721 _0005_
*722 _0006_
*723 _0007_
*724 _0008_
*725 _0009_
*726 _0010_
*727 _0011_
*728 _0012_
*729 _0013_
*730 _0014_
*731 _0015_
*732 _0016_
*733 _0017_
*734 _0018_
*735 _0019_
*736 _0020_
*737 _0021_
*738 _0022_
*739 _0023_
*740 _0024_
*741 _0025_
*742 _0026_
*743 _0027_
*744 _0028_
*745 _0029_
*746 _0030_
*747 _0031_
*748 _0032_
*749 _0033_
*750 _0034_
*751 _0035_
*752 _0036_
*753 _0037_
*754 _0038_
*755 _0039_
*756 _0040_
*757 _0041_
*758 _0042_
*759 _0043_
*760 _0044_
*761 _0045_
*762 _0046_
*763 _0047_
*764 _0048_
*765 _0049_
*766 _0050_
*767 _0051_
*768 _0052_
*769 _0053_
*770 _0054_
*771 _0055_
*772 _0056_
*773 _0057_
*774 _0058_
*775 _0059_
*776 _0060_
*777 _0061_
*778 _0062_
*779 _0063_
*780 _0064_
*781 _0065_
*782 _0066_
*783 _0067_
*784 _0068_
*785 _0069_
*786 _0070_
*787 _0071_
*788 _0072_
*789 _0073_
*790 _0074_
*791 _0075_
*792 _0076_
*793 _0077_
*794 _0078_
*795 _0079_
*796 _0080_
*797 _0081_
*798 _0082_
*799 _0083_
*800 _0084_
*801 _0085_
*802 _0086_
*803 _0087_
*804 _0088_
*805 _0089_
*806 _0090_
*807 _0091_
*808 _0092_
*809 _0093_
*810 _0094_
*811 _0095_
*812 _0096_
*813 _0097_
*814 _0098_
*815 _0099_
*816 _0100_
*817 _0101_
*818 _0102_
*819 _0103_
*820 _0104_
*821 _0105_
*822 _0106_
*823 _0107_
*824 _0108_
*825 _0109_
*826 _0110_
*827 _0111_
*828 _0112_
*829 _0113_
*830 _0114_
*831 _0115_
*832 _0116_
*833 _0117_
*834 _0118_
*835 _0119_
*836 _0120_
*837 _0121_
*838 _0122_
*839 _0123_
*840 _0124_
*841 _0125_
*842 _0126_
*843 _0127_
*844 _0128_
*845 _0129_
*846 _0130_
*847 _0131_
*848 _0132_
*849 _0133_
*850 _0134_
*851 _0135_
*852 _0136_
*853 _0137_
*854 _0138_
*855 _0139_
*856 _0140_
*857 _0141_
*858 _0142_
*859 _0143_
*860 _0144_
*861 _0145_
*862 _0146_
*863 _0147_
*864 _0148_
*865 _0149_
*866 _0150_
*867 _0151_
*868 _0152_
*869 _0153_
*870 _0154_
*871 _0155_
*872 _0156_
*873 _0157_
*874 _0158_
*875 _0159_
*876 _0160_
*877 _0161_
*878 _0162_
*879 _0163_
*880 _0164_
*881 _0165_
*882 _0166_
*883 _0167_
*884 _0168_
*885 _0169_
*886 _0170_
*887 _0171_
*888 _0172_
*889 _0173_
*890 _0174_
*891 _0175_
*892 _0176_
*893 _0177_
*894 _0178_
*895 _0179_
*896 _0180_
*897 _0181_
*898 _0182_
*899 _0183_
*900 _0184_
*901 _0185_
*902 _0186_
*903 _0187_
*904 _0188_
*905 _0189_
*906 _0190_
*907 _0191_
*908 _0192_
*909 _0193_
*910 _0194_
*911 _0195_
*912 _0196_
*913 _0197_
*914 _0198_
*915 _0199_
*916 _0200_
*917 _0201_
*918 _0202_
*919 _0203_
*920 _0204_
*921 _0205_
*922 _0206_
*923 _0207_
*924 _0208_
*925 _0209_
*926 _0210_
*927 _0211_
*928 _0212_
*929 _0213_
*930 _0214_
*931 _0215_
*932 _0216_
*933 _0217_
*934 _0218_
*935 _0219_
*936 _0220_
*937 _0221_
*938 _0222_
*939 _0223_
*940 _0224_
*941 _0225_
*942 _0226_
*943 _0227_
*944 _0228_
*945 _0229_
*946 _0230_
*947 _0231_
*948 _0232_
*949 _0233_
*950 _0234_
*951 _0235_
*952 _0236_
*953 _0237_
*954 _0238_
*955 _0239_
*956 _0240_
*957 _0241_
*958 _0242_
*959 _0243_
*960 _0244_
*961 _0245_
*962 _0246_
*963 _0247_
*964 _0248_
*965 _0249_
*966 _0250_
*967 _0251_
*968 _0252_
*969 _0253_
*970 _0254_
*971 _0255_
*972 _0256_
*973 _0257_
*974 _0258_
*975 _0259_
*976 _0260_
*977 _0261_
*978 _0262_
*979 _0263_
*980 _0264_
*981 _0265_
*982 _0266_
*983 _0267_
*984 _0268_
*985 _0269_
*986 _0270_
*987 _0271_
*988 _0272_
*989 _0273_
*990 _0274_
*991 _0275_
*992 _0276_
*993 _0277_
*994 _0278_
*995 _0279_
*996 _0280_
*997 _0281_
*998 _0282_
*999 _0283_
*1000 _0284_
*1001 _0285_
*1002 _0286_
*1003 _0287_
*1004 _0288_
*1005 _0289_
*1006 _0290_
*1007 _0291_
*1008 _0292_
*1009 _0293_
*1010 _0294_
*1011 _0295_
*1012 _0296_
*1013 _0297_
*1014 _0298_
*1015 _0299_
*1016 _0300_
*1017 _0301_
*1018 _0302_
*1019 _0303_
*1020 _0304_
*1021 _0305_
*1022 _0306_
*1023 _0307_
*1024 _0308_
*1025 _0309_
*1026 _0310_
*1027 _0311_
*1028 _0312_
*1029 _0313_
*1030 _0314_
*1031 _0315_
*1032 _0316_
*1033 _0317_
*1034 _0318_
*1035 _0319_
*1036 _0320_
*1037 _0321_
*1038 _0322_
*1039 _0323_
*1040 _0324_
*1041 _0325_
*1042 _0326_
*1043 _0327_
*1044 _0328_
*1045 _0329_
*1046 _0330_
*1047 _0331_
*1048 _0332_
*1049 _0333_
*1050 _0334_
*1051 _0335_
*1052 _0336_
*1053 _0337_
*1054 _0338_
*1055 _0339_
*1056 _0340_
*1057 _0341_
*1058 _0342_
*1059 _0343_
*1060 _0344_
*1061 _0345_
*1062 _0346_
*1063 _0347_
*1064 _0348_
*1065 _0349_
*1066 _0350_
*1067 _0351_
*1068 _0352_
*1069 _0353_
*1070 _0354_
*1071 _0355_
*1072 _0356_
*1073 _0357_
*1074 _0358_
*1075 _0359_
*1076 _0360_
*1077 _0361_
*1078 _0362_
*1079 _0363_
*1080 _0364_
*1081 _0365_
*1082 _0366_
*1083 _0367_
*1084 _0368_
*1085 _0369_
*1086 _0370_
*1087 _0371_
*1088 _0372_
*1089 _0373_
*1090 _0374_
*1091 _0375_
*1092 _0376_
*1093 _0377_
*1094 _0378_
*1095 _0379_
*1096 _0380_
*1097 _0381_
*1098 _0382_
*1099 _0383_
*1100 _0384_
*1101 _0385_
*1102 _0386_
*1103 _0387_
*1104 _0388_
*1105 _0389_
*1106 _0390_
*1107 _0391_
*1108 _0392_
*1109 _0393_
*1110 _0394_
*1111 _0395_
*1112 _0396_
*1113 _0397_
*1114 _0398_
*1115 _0399_
*1116 _0400_
*1117 _0401_
*1118 _0402_
*1119 _0403_
*1120 _0404_
*1121 _0405_
*1122 _0406_
*1123 _0407_
*1124 _0408_
*1125 _0409_
*1126 _0410_
*1127 _0411_
*1128 _0412_
*1129 _0413_
*1130 _0414_
*1131 _0415_
*1132 _0416_
*1133 _0417_
*1134 _0418_
*1135 _0419_
*1136 _0420_
*1137 _0421_
*1138 _0422_
*1139 _0423_
*1140 _0424_
*1141 _0425_
*1142 _0426_
*1143 _0427_
*1144 _0428_
*1145 _0429_
*1146 _0430_
*1147 _0431_
*1148 _0432_
*1149 _0433_
*1150 _0434_
*1151 _0435_
*1152 _0436_
*1153 _0437_
*1154 _0438_
*1155 _0439_
*1156 _0440_
*1157 _0441_
*1158 _0442_
*1159 _0443_
*1160 _0444_
*1161 _0445_
*1162 _0446_
*1163 _0447_
*1164 _0448_
*1165 _0449_
*1166 _0450_
*1167 _0451_
*1168 _0452_
*1169 _0453_
*1170 _0454_
*1171 _0455_
*1172 _0456_
*1173 _0457_
*1174 _0458_
*1175 _0459_
*1176 _0460_
*1177 _0461_
*1178 _0462_
*1179 _0463_
*1180 _0464_
*1181 _0465_
*1182 _0466_
*1183 _0467_
*1184 _0468_
*1185 _0469_
*1186 _0470_
*1187 _0471_
*1188 _0472_
*1189 _0473_
*1190 _0474_
*1191 _0475_
*1192 _0476_
*1193 _0477_
*1194 _0478_
*1195 _0479_
*1196 _0480_
*1197 _0481_
*1198 _0482_
*1199 _0483_
*1200 _0484_
*1201 _0485_
*1202 _0486_
*1203 _0487_
*1204 _0488_
*1205 _0489_
*1206 _0490_
*1207 _0491_
*1208 _0492_
*1209 _0493_
*1210 _0494_
*1211 _0495_
*1212 _0496_
*1213 _0497_
*1214 _0498_
*1215 _0499_
*1216 _0500_
*1217 _0501_
*1218 _0502_
*1219 _0503_
*1220 _0504_
*1221 _0505_
*1222 _0506_
*1223 _0507_
*1224 _0508_
*1225 _0509_
*1226 _0510_
*1227 _0511_
*1228 _0512_
*1229 _0513_
*1230 _0514_
*1231 _0515_
*1232 _0516_
*1233 _0517_
*1234 _0518_
*1235 _0519_
*1236 _0520_
*1237 _0521_
*1238 _0522_
*1239 _0523_
*1240 _0524_
*1241 _0525_
*1242 _0526_
*1243 _0527_
*1244 _0528_
*1245 _0529_
*1246 _0530_
*1247 _0531_
*1248 _0532_
*1249 _0533_
*1250 _0534_
*1251 _0535_
*1252 _0536_
*1253 _0537_
*1254 _0538_
*1255 _0539_
*1256 _0540_
*1257 _0541_
*1258 _0542_
*1259 _0543_
*1260 _0544_
*1261 _0545_
*1262 _0546_
*1263 _0547_
*1264 _0548_
*1265 _0549_
*1266 _0550_
*1267 _0551_
*1268 _0552_
*1269 _0553_
*1270 _0554_
*1271 _0555_
*1272 _0556_
*1273 _0557_
*1274 _0558_
*1275 _0559_
*1276 _0560_
*1277 _0561_
*1278 _0562_
*1279 _0563_
*1280 _0564_
*1281 _0565_
*1282 _0566_
*1283 _0567_
*1284 _0568_
*1285 _0569_
*1286 _0570_
*1287 _0571_
*1288 _0572_
*1289 _0573_
*1290 _0574_
*1291 _0575_
*1292 _0576_
*1293 _0577_
*1294 _0578_
*1295 _0579_
*1296 _0580_
*1297 _0581_
*1298 _0582_
*1299 _0583_
*1300 _0584_
*1301 _0585_
*1302 _0586_
*1303 _0587_
*1304 _0588_
*1305 _0589_
*1306 _0590_
*1307 _0591_
*1308 _0592_
*1309 _0593_
*1310 _0594_
*1311 _0595_
*1312 _0596_
*1313 _0597_
*1314 _0598_
*1315 _0599_
*1316 _0600_
*1317 _0601_
*1318 _0602_
*1319 _0603_
*1320 _0604_
*1321 _0605_
*1322 _0606_
*1323 _0607_
*1324 _0608_
*1325 _0609_
*1326 _0610_
*1327 _0611_
*1328 _0612_
*1329 _0613_
*1330 _0614_
*1331 _0615_
*1332 _0616_
*1333 _0617_
*1334 _0618_
*1335 _0619_
*1336 _0620_
*1337 _0621_
*1338 _0622_
*1339 _0623_
*1340 _0624_
*1341 _0625_
*1342 _0626_
*1343 _0627_
*1344 _0628_
*1345 _0629_
*1346 _0630_
*1347 _0631_
*1348 _0632_
*1349 _0633_
*1350 _0634_
*1351 _0635_
*1352 _0636_
*1353 _0637_
*1354 _0638_
*1355 _0639_
*1356 _0640_
*1357 _0641_
*1358 _0642_
*1359 _0643_
*1360 _0644_
*1361 _0645_
*1362 _0646_
*1363 _0647_
*1364 _0648_
*1365 _0649_
*1366 _0650_
*1367 _0651_
*1368 _0652_
*1369 _0653_
*1370 _0654_
*1371 _0655_
*1372 _0656_
*1373 _0657_
*1374 _0658_
*1375 _0659_
*1376 _0660_
*1377 _0661_
*1378 _0662_
*1379 _0663_
*1380 _0664_
*1381 _0665_
*1382 _0666_
*1383 _0667_
*1384 _0668_
*1385 _0669_
*1386 _0670_
*1387 _0671_
*1388 _0672_
*1389 _0673_
*1390 _0674_
*1391 _0675_
*1392 _0676_
*1393 _0677_
*1394 _0678_
*1395 _0679_
*1396 _0680_
*1397 _0681_
*1398 _0682_
*1399 _0683_
*1400 _0684_
*1401 _0685_
*1402 _0686_
*1403 _0687_
*1404 _0688_
*1405 _0689_
*1406 _0690_
*1407 _0691_
*1408 _0692_
*1409 _0693_
*1410 _0694_
*1411 _0695_
*1412 _0696_
*1413 _0697_
*1414 _0698_
*1415 _0699_
*1416 _0700_
*1417 _0701_
*1418 _0702_
*1419 _0703_
*1420 _0704_
*1421 _0705_
*1422 _0706_
*1423 _0707_
*1424 _0708_
*1425 _0709_
*1426 _0710_
*1427 _0711_
*1428 _0712_
*1429 _0713_
*1430 _0714_
*1431 _0715_
*1432 _0716_
*1433 _0717_
*1434 _0718_
*1435 _0719_
*1436 _0720_
*1437 _0721_
*1438 _0722_
*1439 _0723_
*1440 _0724_
*1441 _0725_
*1442 _0726_
*1443 _0727_
*1444 _0728_
*1445 _0729_
*1446 _0730_
*1447 _0731_
*1448 _0732_
*1449 _0733_
*1450 _0734_
*1451 _0735_
*1452 _0736_
*1453 _0737_
*1454 _0738_
*1455 _0739_
*1456 _0740_
*1457 _0741_
*1458 _0742_
*1459 _0743_
*1460 _0744_
*1461 _0745_
*1462 _0746_
*1463 _0747_
*1464 _0748_
*1465 _0749_
*1466 _0750_
*1467 _0751_
*1468 _0752_
*1469 _0753_
*1470 _0754_
*1471 _0755_
*1472 _0756_
*1473 _0757_
*1474 _0758_
*1475 _0759_
*1476 _0760_
*1477 _0761_
*1478 _0762_
*1479 _0763_
*1480 _0764_
*1481 _0765_
*1482 _0766_
*1483 _0767_
*1484 _0768_
*1485 _0769_
*1486 _0770_
*1487 _0771_
*1488 _0772_
*1489 _0773_
*1490 _0774_
*1491 _0775_
*1492 _0776_
*1493 _0777_
*1494 _0778_
*1495 _0779_
*1496 _0780_
*1497 _0781_
*1498 _0782_
*1499 _0783_
*1500 _0784_
*1501 _0785_
*1502 _0786_
*1503 _0787_
*1504 _0788_
*1505 _0789_
*1506 _0790_
*1507 _0791_
*1508 _0792_
*1509 _0793_
*1510 _0794_
*1511 _0795_
*1512 _0796_
*1513 _0797_
*1514 _0798_
*1515 _0799_
*1516 _0800_
*1517 _0801_
*1518 _0802_
*1519 _0803_
*1520 _0804_
*1521 _0805_
*1522 _0806_
*1523 _0807_
*1524 _0808_
*1525 _0809_
*1526 _0810_
*1527 _0811_
*1528 _0812_
*1529 _0813_
*1530 _0814_
*1531 _0815_
*1532 _0816_
*1533 _0817_
*1534 _0818_
*1535 _0819_
*1536 _0820_
*1537 _0821_
*1538 _0822_
*1539 _0823_
*1540 _0824_
*1541 _0825_
*1542 _0826_
*1543 _0827_
*1544 _0828_
*1545 _0829_
*1546 _0830_
*1547 _0831_
*1548 _0832_
*1549 _0833_
*1550 _0834_
*1551 _0835_
*1552 _0836_
*1553 _0837_
*1554 _0838_
*1555 _0839_
*1556 _0840_
*1557 _0841_
*1558 _0842_
*1559 _0843_
*1560 _0844_
*1561 _0845_
*1562 _0846_
*1563 _0847_
*1564 _0848_
*1565 _0849_
*1566 _0850_
*1567 _0851_
*1568 _0852_
*1569 _0853_
*1570 _0854_
*1571 _0855_
*1572 _0856_
*1573 _0857_
*1574 _0858_
*1575 _0859_
*1576 _0860_
*1577 _0861_
*1578 _0862_
*1579 _0863_
*1580 _0864_
*1581 _0865_
*1582 _0866_
*1583 _0867_
*1584 _0868_
*1585 _0869_
*1586 _0870_
*1587 _0871_
*1588 _0872_
*1589 _0873_
*1590 _0874_
*1591 _0875_
*1592 _0876_
*1593 _0877_
*1594 _0878_
*1595 _0879_
*1596 _0880_
*1597 _0881_
*1598 _0882_
*1599 _0883_
*1600 _0884_
*1601 _0885_
*1602 _0886_
*1603 _0887_
*1604 _0888_
*1605 _0889_
*1606 _0890_
*1607 _0891_
*1608 _0892_
*1609 _0893_
*1610 _0894_
*1611 _0895_
*1612 _0896_
*1613 _0897_
*1614 _0898_
*1615 _0899_
*1616 _0900_
*1617 _0901_
*1618 _0902_
*1619 _0903_
*1620 _0904_
*1621 _0905_
*1622 _0906_
*1623 _0907_
*1624 _0908_
*1625 _0909_
*1626 _0910_
*1627 _0911_
*1628 _0912_
*1629 _0913_
*1630 _0914_
*1631 _0915_
*1632 _0916_
*1633 _0917_
*1634 _0918_
*1635 _0919_
*1636 _0920_
*1637 _0921_
*1638 _0922_
*1639 _0923_
*1640 _0924_
*1641 _0925_
*1642 _0926_
*1643 _0927_
*1644 _0928_
*1645 _0929_
*1646 clknet_0_wb_clk_i
*1647 clknet_2_0__leaf_wb_clk_i
*1648 clknet_2_1__leaf_wb_clk_i
*1649 clknet_2_2__leaf_wb_clk_i
*1650 clknet_2_3__leaf_wb_clk_i
*1651 clknet_leaf_0_wb_clk_i
*1652 clknet_leaf_10_wb_clk_i
*1653 clknet_leaf_11_wb_clk_i
*1654 clknet_leaf_12_wb_clk_i
*1655 clknet_leaf_13_wb_clk_i
*1656 clknet_leaf_14_wb_clk_i
*1657 clknet_leaf_15_wb_clk_i
*1658 clknet_leaf_16_wb_clk_i
*1659 clknet_leaf_17_wb_clk_i
*1660 clknet_leaf_18_wb_clk_i
*1661 clknet_leaf_19_wb_clk_i
*1662 clknet_leaf_1_wb_clk_i
*1663 clknet_leaf_20_wb_clk_i
*1664 clknet_leaf_21_wb_clk_i
*1665 clknet_leaf_22_wb_clk_i
*1666 clknet_leaf_23_wb_clk_i
*1667 clknet_leaf_24_wb_clk_i
*1668 clknet_leaf_25_wb_clk_i
*1669 clknet_leaf_26_wb_clk_i
*1670 clknet_leaf_27_wb_clk_i
*1671 clknet_leaf_28_wb_clk_i
*1672 clknet_leaf_2_wb_clk_i
*1673 clknet_leaf_3_wb_clk_i
*1674 clknet_leaf_4_wb_clk_i
*1675 clknet_leaf_5_wb_clk_i
*1676 clknet_leaf_6_wb_clk_i
*1677 clknet_leaf_7_wb_clk_i
*1678 clknet_leaf_8_wb_clk_i
*1679 clknet_leaf_9_wb_clk_i
*1680 ncnt\[0\]
*1681 ncnt\[1\]
*1682 ncnt\[2\]
*1683 ncnt\[3\]
*1684 ncnt\[4\]
*1685 ncnt\[5\]
*1686 ncnt\[6\]
*1687 ncnt\[7\]
*1688 net1
*1689 net10
*1690 net100
*1691 net101
*1692 net102
*1693 net103
*1694 net104
*1695 net105
*1696 net106
*1697 net107
*1698 net108
*1699 net109
*1700 net11
*1701 net110
*1702 net111
*1703 net112
*1704 net113
*1705 net114
*1706 net115
*1707 net116
*1708 net117
*1709 net118
*1710 net119
*1711 net12
*1712 net120
*1713 net121
*1714 net122
*1715 net123
*1716 net124
*1717 net125
*1718 net126
*1719 net127
*1720 net128
*1721 net129
*1722 net13
*1723 net130
*1724 net131
*1725 net132
*1726 net133
*1727 net134
*1728 net135
*1729 net136
*1730 net137
*1731 net138
*1732 net139
*1733 net14
*1734 net140
*1735 net141
*1736 net142
*1737 net143
*1738 net15
*1739 net16
*1740 net17
*1741 net18
*1742 net19
*1743 net2
*1744 net20
*1745 net21
*1746 net22
*1747 net23
*1748 net24
*1749 net25
*1750 net26
*1751 net27
*1752 net28
*1753 net29
*1754 net3
*1755 net30
*1756 net31
*1757 net32
*1758 net33
*1759 net34
*1760 net35
*1761 net36
*1762 net37
*1763 net38
*1764 net39
*1765 net4
*1766 net40
*1767 net41
*1768 net42
*1769 net43
*1770 net44
*1771 net45
*1772 net46
*1773 net47
*1774 net48
*1775 net49
*1776 net5
*1777 net50
*1778 net51
*1779 net52
*1780 net53
*1781 net54
*1782 net55
*1783 net56
*1784 net57
*1785 net58
*1786 net59
*1787 net6
*1788 net60
*1789 net61
*1790 net62
*1791 net63
*1792 net64
*1793 net65
*1794 net66
*1795 net67
*1796 net68
*1797 net69
*1798 net7
*1799 net70
*1800 net71
*1801 net72
*1802 net73
*1803 net74
*1804 net75
*1805 net76
*1806 net77
*1807 net78
*1808 net79
*1809 net8
*1810 net80
*1811 net81
*1812 net82
*1813 net83
*1814 net84
*1815 net85
*1816 net86
*1817 net87
*1818 net88
*1819 net89
*1820 net9
*1821 net90
*1822 net91
*1823 net92
*1824 net93
*1825 net94
*1826 net95
*1827 net96
*1828 net97
*1829 net98
*1830 net99
*1831 nstate\[0\]
*1832 spm\.csa0\.hsum2
*1833 spm\.csa0\.sc
*1834 spm\.csa0\.sum
*1835 spm\.csa0\.y
*1836 spm\.genblk1\[10\]\.csa\.hsum2
*1837 spm\.genblk1\[10\]\.csa\.sc
*1838 spm\.genblk1\[10\]\.csa\.sum
*1839 spm\.genblk1\[10\]\.csa\.y
*1840 spm\.genblk1\[11\]\.csa\.hsum2
*1841 spm\.genblk1\[11\]\.csa\.sc
*1842 spm\.genblk1\[11\]\.csa\.y
*1843 spm\.genblk1\[12\]\.csa\.hsum2
*1844 spm\.genblk1\[12\]\.csa\.sc
*1845 spm\.genblk1\[12\]\.csa\.y
*1846 spm\.genblk1\[13\]\.csa\.hsum2
*1847 spm\.genblk1\[13\]\.csa\.sc
*1848 spm\.genblk1\[13\]\.csa\.y
*1849 spm\.genblk1\[14\]\.csa\.hsum2
*1850 spm\.genblk1\[14\]\.csa\.sc
*1851 spm\.genblk1\[14\]\.csa\.y
*1852 spm\.genblk1\[15\]\.csa\.hsum2
*1853 spm\.genblk1\[15\]\.csa\.sc
*1854 spm\.genblk1\[15\]\.csa\.y
*1855 spm\.genblk1\[16\]\.csa\.hsum2
*1856 spm\.genblk1\[16\]\.csa\.sc
*1857 spm\.genblk1\[16\]\.csa\.y
*1858 spm\.genblk1\[17\]\.csa\.hsum2
*1859 spm\.genblk1\[17\]\.csa\.sc
*1860 spm\.genblk1\[17\]\.csa\.y
*1861 spm\.genblk1\[18\]\.csa\.hsum2
*1862 spm\.genblk1\[18\]\.csa\.sc
*1863 spm\.genblk1\[18\]\.csa\.y
*1864 spm\.genblk1\[19\]\.csa\.hsum2
*1865 spm\.genblk1\[19\]\.csa\.sc
*1866 spm\.genblk1\[19\]\.csa\.y
*1867 spm\.genblk1\[1\]\.csa\.hsum2
*1868 spm\.genblk1\[1\]\.csa\.sc
*1869 spm\.genblk1\[1\]\.csa\.y
*1870 spm\.genblk1\[20\]\.csa\.hsum2
*1871 spm\.genblk1\[20\]\.csa\.sc
*1872 spm\.genblk1\[20\]\.csa\.y
*1873 spm\.genblk1\[21\]\.csa\.hsum2
*1874 spm\.genblk1\[21\]\.csa\.sc
*1875 spm\.genblk1\[21\]\.csa\.y
*1876 spm\.genblk1\[22\]\.csa\.hsum2
*1877 spm\.genblk1\[22\]\.csa\.sc
*1878 spm\.genblk1\[22\]\.csa\.y
*1879 spm\.genblk1\[23\]\.csa\.hsum2
*1880 spm\.genblk1\[23\]\.csa\.sc
*1881 spm\.genblk1\[23\]\.csa\.y
*1882 spm\.genblk1\[24\]\.csa\.hsum2
*1883 spm\.genblk1\[24\]\.csa\.sc
*1884 spm\.genblk1\[24\]\.csa\.y
*1885 spm\.genblk1\[25\]\.csa\.hsum2
*1886 spm\.genblk1\[25\]\.csa\.sc
*1887 spm\.genblk1\[25\]\.csa\.y
*1888 spm\.genblk1\[26\]\.csa\.hsum2
*1889 spm\.genblk1\[26\]\.csa\.sc
*1890 spm\.genblk1\[26\]\.csa\.y
*1891 spm\.genblk1\[27\]\.csa\.hsum2
*1892 spm\.genblk1\[27\]\.csa\.sc
*1893 spm\.genblk1\[27\]\.csa\.y
*1894 spm\.genblk1\[28\]\.csa\.hsum2
*1895 spm\.genblk1\[28\]\.csa\.sc
*1896 spm\.genblk1\[28\]\.csa\.y
*1897 spm\.genblk1\[29\]\.csa\.hsum2
*1898 spm\.genblk1\[29\]\.csa\.sc
*1899 spm\.genblk1\[29\]\.csa\.y
*1900 spm\.genblk1\[2\]\.csa\.hsum2
*1901 spm\.genblk1\[2\]\.csa\.sc
*1902 spm\.genblk1\[2\]\.csa\.y
*1903 spm\.genblk1\[30\]\.csa\.hsum2
*1904 spm\.genblk1\[30\]\.csa\.sc
*1905 spm\.genblk1\[30\]\.csa\.y
*1906 spm\.genblk1\[3\]\.csa\.hsum2
*1907 spm\.genblk1\[3\]\.csa\.sc
*1908 spm\.genblk1\[3\]\.csa\.y
*1909 spm\.genblk1\[4\]\.csa\.hsum2
*1910 spm\.genblk1\[4\]\.csa\.sc
*1911 spm\.genblk1\[4\]\.csa\.y
*1912 spm\.genblk1\[5\]\.csa\.hsum2
*1913 spm\.genblk1\[5\]\.csa\.sc
*1914 spm\.genblk1\[5\]\.csa\.y
*1915 spm\.genblk1\[6\]\.csa\.hsum2
*1916 spm\.genblk1\[6\]\.csa\.sc
*1917 spm\.genblk1\[6\]\.csa\.y
*1918 spm\.genblk1\[7\]\.csa\.hsum2
*1919 spm\.genblk1\[7\]\.csa\.sc
*1920 spm\.genblk1\[7\]\.csa\.y
*1921 spm\.genblk1\[8\]\.csa\.hsum2
*1922 spm\.genblk1\[8\]\.csa\.sc
*1923 spm\.genblk1\[8\]\.csa\.y
*1924 spm\.genblk1\[9\]\.csa\.hsum2
*1925 spm\.genblk1\[9\]\.csa\.sc
*1926 spm\.tcmp\.z
*1927 spm\.x\[0\]
*1928 spm\.x\[10\]
*1929 spm\.x\[11\]
*1930 spm\.x\[12\]
*1931 spm\.x\[13\]
*1932 spm\.x\[14\]
*1933 spm\.x\[15\]
*1934 spm\.x\[16\]
*1935 spm\.x\[17\]
*1936 spm\.x\[18\]
*1937 spm\.x\[19\]
*1938 spm\.x\[1\]
*1939 spm\.x\[20\]
*1940 spm\.x\[21\]
*1941 spm\.x\[22\]
*1942 spm\.x\[23\]
*1943 spm\.x\[24\]
*1944 spm\.x\[25\]
*1945 spm\.x\[26\]
*1946 spm\.x\[27\]
*1947 spm\.x\[28\]
*1948 spm\.x\[29\]
*1949 spm\.x\[2\]
*1950 spm\.x\[30\]
*1951 spm\.x\[31\]
*1952 spm\.x\[3\]
*1953 spm\.x\[4\]
*1954 spm\.x\[5\]
*1955 spm\.x\[6\]
*1956 spm\.x\[7\]
*1957 spm\.x\[8\]